<routes>
  <vType id="car" accel="1.0" decel="4.5" maxSpeed="25" length="5"/>
  <personType id="pedestrian" vClass="pedestrian" speed="1.0"/>
  <vehicle id="veh_0_1" type="car" depart="1" departLane="random" departSpeed="max">
    <route edges="N2TL TL2S"/>
  </vehicle>
  <vehicle id="veh_2_2" type="car" depart="2" departLane="random" departSpeed="max">
    <route edges="S2TL TL2E"/>
  </vehicle>
  <person id="ped_0_2" personType="pedestrian" depart="2">
    <walk edges=":TL_c0"/>
  </person>
  <vehicle id="veh_0_3" type="car" depart="3" departLane="random" departSpeed="max">
    <route edges="N2TL TL2E"/>
  </vehicle>
  <vehicle id="veh_2_4" type="car" depart="4" departLane="random" departSpeed="max">
    <route edges="S2TL TL2W"/>
  </vehicle>
  <person id="ped_2_5" personType="pedestrian" depart="5">
    <walk edges=":TL_c2"/>
  </person>
  <vehicle id="veh_0_6" type="car" depart="6" departLane="random" departSpeed="max">
    <route edges="N2TL TL2S"/>
  </vehicle>
  <vehicle id="veh_3_6" type="car" depart="6" departLane="random" departSpeed="max">
    <route edges="W2TL TL2S"/>
  </vehicle>
  <vehicle id="veh_0_7" type="car" depart="7" departLane="random" departSpeed="max">
    <route edges="N2TL TL2E"/>
  </vehicle>
  <vehicle id="veh_1_7" type="car" depart="7" departLane="random" departSpeed="max">
    <route edges="E2TL TL2W"/>
  </vehicle>
  <vehicle id="veh_3_7" type="car" depart="7" departLane="random" departSpeed="max">
    <route edges="W2TL TL2S"/>
  </vehicle>
  <person id="ped_1_7" personType="pedestrian" depart="7">
    <walk edges=":TL_c1"/>
  </person>
  <person id="ped_2_9" personType="pedestrian" depart="9">
    <walk edges=":TL_c2"/>
  </person>
  <vehicle id="veh_0_10" type="car" depart="10" departLane="random" departSpeed="max">
    <route edges="N2TL TL2E"/>
  </vehicle>
  <vehicle id="veh_2_10" type="car" depart="10" departLane="random" departSpeed="max">
    <route edges="S2TL TL2E"/>
  </vehicle>
  <person id="ped_0_10" personType="pedestrian" depart="10">
    <walk edges=":TL_c0"/>
  </person>
  <vehicle id="veh_3_11" type="car" depart="11" departLane="random" departSpeed="max">
    <route edges="W2TL TL2S"/>
  </vehicle>
  <vehicle id="veh_2_12" type="car" depart="12" departLane="random" departSpeed="max">
    <route edges="S2TL TL2N"/>
  </vehicle>
  <person id="ped_0_12" personType="pedestrian" depart="12">
    <walk edges=":TL_c0"/>
  </person>
  <person id="ped_3_12" personType="pedestrian" depart="12">
    <walk edges=":TL_c3"/>
  </person>
  <person id="ped_1_13" personType="pedestrian" depart="13">
    <walk edges=":TL_c1"/>
  </person>
  <vehicle id="veh_1_14" type="car" depart="14" departLane="random" departSpeed="max">
    <route edges="E2TL TL2N"/>
  </vehicle>
  <vehicle id="veh_3_14" type="car" depart="14" departLane="random" departSpeed="max">
    <route edges="W2TL TL2N"/>
  </vehicle>
  <person id="ped_0_14" personType="pedestrian" depart="14">
    <walk edges=":TL_c0"/>
  </person>
  <person id="ped_2_14" personType="pedestrian" depart="14">
    <walk edges=":TL_c2"/>
  </person>
  <person id="ped_3_14" personType="pedestrian" depart="14">
    <walk edges=":TL_c3"/>
  </person>
  <vehicle id="veh_2_16" type="car" depart="16" departLane="random" departSpeed="max">
    <route edges="S2TL TL2E"/>
  </vehicle>
  <vehicle id="veh_1_17" type="car" depart="17" departLane="random" departSpeed="max">
    <route edges="E2TL TL2W"/>
  </vehicle>
  <vehicle id="veh_3_17" type="car" depart="17" departLane="random" departSpeed="max">
    <route edges="W2TL TL2S"/>
  </vehicle>
  <vehicle id="veh_0_18" type="car" depart="18" departLane="random" departSpeed="max">
    <route edges="N2TL TL2S"/>
  </vehicle>
  <vehicle id="veh_3_18" type="car" depart="18" departLane="random" departSpeed="max">
    <route edges="W2TL TL2E"/>
  </vehicle>
  <person id="ped_1_18" personType="pedestrian" depart="18">
    <walk edges=":TL_c1"/>
  </person>
  <vehicle id="veh_1_19" type="car" depart="19" departLane="random" departSpeed="max">
    <route edges="E2TL TL2W"/>
  </vehicle>
  <vehicle id="veh_0_20" type="car" depart="20" departLane="random" departSpeed="max">
    <route edges="N2TL TL2S"/>
  </vehicle>
  <person id="ped_2_20" personType="pedestrian" depart="20">
    <walk edges=":TL_c2"/>
  </person>
  <vehicle id="veh_0_21" type="car" depart="21" departLane="random" departSpeed="max">
    <route edges="N2TL TL2S"/>
  </vehicle>
  <vehicle id="veh_0_22" type="car" depart="22" departLane="random" departSpeed="max">
    <route edges="N2TL TL2S"/>
  </vehicle>
  <vehicle id="veh_2_22" type="car" depart="22" departLane="random" departSpeed="max">
    <route edges="S2TL TL2N"/>
  </vehicle>
  <vehicle id="veh_3_22" type="car" depart="22" departLane="random" departSpeed="max">
    <route edges="W2TL TL2S"/>
  </vehicle>
  <person id="ped_0_22" personType="pedestrian" depart="22">
    <walk edges=":TL_c0"/>
  </person>
  <person id="ped_1_22" personType="pedestrian" depart="22">
    <walk edges=":TL_c1"/>
  </person>
  <vehicle id="veh_3_24" type="car" depart="24" departLane="random" departSpeed="max">
    <route edges="W2TL TL2E"/>
  </vehicle>
  <person id="ped_1_25" personType="pedestrian" depart="25">
    <walk edges=":TL_c1"/>
  </person>
  <person id="ped_2_25" personType="pedestrian" depart="25">
    <walk edges=":TL_c2"/>
  </person>
  <person id="ped_0_26" personType="pedestrian" depart="26">
    <walk edges=":TL_c0"/>
  </person>
  <person id="ped_1_26" personType="pedestrian" depart="26">
    <walk edges=":TL_c1"/>
  </person>
  <person id="ped_3_26" personType="pedestrian" depart="26">
    <walk edges=":TL_c3"/>
  </person>
  <vehicle id="veh_1_27" type="car" depart="27" departLane="random" departSpeed="max">
    <route edges="E2TL TL2N"/>
  </vehicle>
  <vehicle id="veh_1_28" type="car" depart="28" departLane="random" departSpeed="max">
    <route edges="E2TL TL2W"/>
  </vehicle>
  <vehicle id="veh_1_29" type="car" depart="29" departLane="random" departSpeed="max">
    <route edges="E2TL TL2N"/>
  </vehicle>
  <vehicle id="veh_3_29" type="car" depart="29" departLane="random" departSpeed="max">
    <route edges="W2TL TL2N"/>
  </vehicle>
  <person id="ped_1_29" personType="pedestrian" depart="29">
    <walk edges=":TL_c1"/>
  </person>
  <person id="ped_3_30" personType="pedestrian" depart="30">
    <walk edges=":TL_c3"/>
  </person>
  <person id="ped_2_31" personType="pedestrian" depart="31">
    <walk edges=":TL_c2"/>
  </person>
  <vehicle id="veh_2_32" type="car" depart="32" departLane="random" departSpeed="max">
    <route edges="S2TL TL2E"/>
  </vehicle>
  <person id="ped_1_32" personType="pedestrian" depart="32">
    <walk edges=":TL_c1"/>
  </person>
  <person id="ped_2_32" personType="pedestrian" depart="32">
    <walk edges=":TL_c2"/>
  </person>
  <person id="ped_1_33" personType="pedestrian" depart="33">
    <walk edges=":TL_c1"/>
  </person>
  <vehicle id="veh_0_35" type="car" depart="35" departLane="random" departSpeed="max">
    <route edges="N2TL TL2E"/>
  </vehicle>
  <person id="ped_1_35" personType="pedestrian" depart="35">
    <walk edges=":TL_c1"/>
  </person>
  <vehicle id="veh_1_36" type="car" depart="36" departLane="random" departSpeed="max">
    <route edges="E2TL TL2S"/>
  </vehicle>
  <person id="ped_2_36" personType="pedestrian" depart="36">
    <walk edges=":TL_c2"/>
  </person>
  <vehicle id="veh_1_37" type="car" depart="37" departLane="random" departSpeed="max">
    <route edges="E2TL TL2W"/>
  </vehicle>
  <person id="ped_0_38" personType="pedestrian" depart="38">
    <walk edges=":TL_c0"/>
  </person>
  <person id="ped_1_38" personType="pedestrian" depart="38">
    <walk edges=":TL_c1"/>
  </person>
  <person id="ped_2_40" personType="pedestrian" depart="40">
    <walk edges=":TL_c2"/>
  </person>
  <vehicle id="veh_1_41" type="car" depart="41" departLane="random" departSpeed="max">
    <route edges="E2TL TL2S"/>
  </vehicle>
  <vehicle id="veh_3_41" type="car" depart="41" departLane="random" departSpeed="max">
    <route edges="W2TL TL2S"/>
  </vehicle>
  <vehicle id="veh_0_43" type="car" depart="43" departLane="random" departSpeed="max">
    <route edges="N2TL TL2S"/>
  </vehicle>
  <vehicle id="veh_1_43" type="car" depart="43" departLane="random" departSpeed="max">
    <route edges="E2TL TL2N"/>
  </vehicle>
  <person id="ped_2_43" personType="pedestrian" depart="43">
    <walk edges=":TL_c2"/>
  </person>
  <person id="ped_1_45" personType="pedestrian" depart="45">
    <walk edges=":TL_c1"/>
  </person>
  <vehicle id="veh_1_46" type="car" depart="46" departLane="random" departSpeed="max">
    <route edges="E2TL TL2S"/>
  </vehicle>
  <vehicle id="veh_3_46" type="car" depart="46" departLane="random" departSpeed="max">
    <route edges="W2TL TL2S"/>
  </vehicle>
  <vehicle id="veh_3_47" type="car" depart="47" departLane="random" departSpeed="max">
    <route edges="W2TL TL2N"/>
  </vehicle>
  <person id="ped_2_47" personType="pedestrian" depart="47">
    <walk edges=":TL_c2"/>
  </person>
  <vehicle id="veh_1_48" type="car" depart="48" departLane="random" departSpeed="max">
    <route edges="E2TL TL2S"/>
  </vehicle>
  <vehicle id="veh_3_50" type="car" depart="50" departLane="random" departSpeed="max">
    <route edges="W2TL TL2N"/>
  </vehicle>
  <person id="ped_1_50" personType="pedestrian" depart="50">
    <walk edges=":TL_c1"/>
  </person>
  <vehicle id="veh_0_51" type="car" depart="51" departLane="random" departSpeed="max">
    <route edges="N2TL TL2S"/>
  </vehicle>
  <vehicle id="veh_2_52" type="car" depart="52" departLane="random" departSpeed="max">
    <route edges="S2TL TL2W"/>
  </vehicle>
  <vehicle id="veh_3_52" type="car" depart="52" departLane="random" departSpeed="max">
    <route edges="W2TL TL2S"/>
  </vehicle>
  <person id="ped_0_52" personType="pedestrian" depart="52">
    <walk edges=":TL_c0"/>
  </person>
  <vehicle id="veh_3_53" type="car" depart="53" departLane="random" departSpeed="max">
    <route edges="W2TL TL2E"/>
  </vehicle>
  <person id="ped_1_55" personType="pedestrian" depart="55">
    <walk edges=":TL_c1"/>
  </person>
  <vehicle id="veh_1_56" type="car" depart="56" departLane="random" departSpeed="max">
    <route edges="E2TL TL2W"/>
  </vehicle>
  <vehicle id="veh_1_57" type="car" depart="57" departLane="random" departSpeed="max">
    <route edges="E2TL TL2N"/>
  </vehicle>
  <vehicle id="veh_0_58" type="car" depart="58" departLane="random" departSpeed="max">
    <route edges="N2TL TL2E"/>
  </vehicle>
  <vehicle id="veh_3_58" type="car" depart="58" departLane="random" departSpeed="max">
    <route edges="W2TL TL2N"/>
  </vehicle>
  <person id="ped_0_58" personType="pedestrian" depart="58">
    <walk edges=":TL_c0"/>
  </person>
  <vehicle id="veh_1_59" type="car" depart="59" departLane="random" departSpeed="max">
    <route edges="E2TL TL2S"/>
  </vehicle>
  <vehicle id="veh_0_61" type="car" depart="61" departLane="random" departSpeed="max">
    <route edges="N2TL TL2W"/>
  </vehicle>
  <person id="ped_3_61" personType="pedestrian" depart="61">
    <walk edges=":TL_c3"/>
  </person>
  <person id="ped_0_62" personType="pedestrian" depart="62">
    <walk edges=":TL_c0"/>
  </person>
  <vehicle id="veh_1_64" type="car" depart="64" departLane="random" departSpeed="max">
    <route edges="E2TL TL2N"/>
  </vehicle>
  <vehicle id="veh_3_64" type="car" depart="64" departLane="random" departSpeed="max">
    <route edges="W2TL TL2N"/>
  </vehicle>
  <person id="ped_0_64" personType="pedestrian" depart="64">
    <walk edges=":TL_c0"/>
  </person>
  <person id="ped_3_64" personType="pedestrian" depart="64">
    <walk edges=":TL_c3"/>
  </person>
  <vehicle id="veh_3_65" type="car" depart="65" departLane="random" departSpeed="max">
    <route edges="W2TL TL2N"/>
  </vehicle>
  <vehicle id="veh_2_67" type="car" depart="67" departLane="random" departSpeed="max">
    <route edges="S2TL TL2W"/>
  </vehicle>
  <person id="ped_0_67" personType="pedestrian" depart="67">
    <walk edges=":TL_c0"/>
  </person>
  <person id="ped_0_68" personType="pedestrian" depart="68">
    <walk edges=":TL_c0"/>
  </person>
  <person id="ped_2_68" personType="pedestrian" depart="68">
    <walk edges=":TL_c2"/>
  </person>
  <person id="ped_3_69" personType="pedestrian" depart="69">
    <walk edges=":TL_c3"/>
  </person>
  <person id="ped_0_70" personType="pedestrian" depart="70">
    <walk edges=":TL_c0"/>
  </person>
  <person id="ped_1_70" personType="pedestrian" depart="70">
    <walk edges=":TL_c1"/>
  </person>
  <vehicle id="veh_1_72" type="car" depart="72" departLane="random" departSpeed="max">
    <route edges="E2TL TL2S"/>
  </vehicle>
  <vehicle id="veh_3_72" type="car" depart="72" departLane="random" departSpeed="max">
    <route edges="W2TL TL2E"/>
  </vehicle>
  <person id="ped_2_75" personType="pedestrian" depart="75">
    <walk edges=":TL_c2"/>
  </person>
  <person id="ped_0_76" personType="pedestrian" depart="76">
    <walk edges=":TL_c0"/>
  </person>
  <person id="ped_1_76" personType="pedestrian" depart="76">
    <walk edges=":TL_c1"/>
  </person>
  <person id="ped_1_77" personType="pedestrian" depart="77">
    <walk edges=":TL_c1"/>
  </person>
  <person id="ped_3_77" personType="pedestrian" depart="77">
    <walk edges=":TL_c3"/>
  </person>
  <vehicle id="veh_0_78" type="car" depart="78" departLane="random" departSpeed="max">
    <route edges="N2TL TL2E"/>
  </vehicle>
  <vehicle id="veh_2_79" type="car" depart="79" departLane="random" departSpeed="max">
    <route edges="S2TL TL2N"/>
  </vehicle>
  <person id="ped_0_79" personType="pedestrian" depart="79">
    <walk edges=":TL_c0"/>
  </person>
  <vehicle id="veh_0_80" type="car" depart="80" departLane="random" departSpeed="max">
    <route edges="N2TL TL2E"/>
  </vehicle>
  <person id="ped_3_80" personType="pedestrian" depart="80">
    <walk edges=":TL_c3"/>
  </person>
  <vehicle id="veh_1_81" type="car" depart="81" departLane="random" departSpeed="max">
    <route edges="E2TL TL2W"/>
  </vehicle>
  <vehicle id="veh_3_82" type="car" depart="82" departLane="random" departSpeed="max">
    <route edges="W2TL TL2S"/>
  </vehicle>
  <vehicle id="veh_0_83" type="car" depart="83" departLane="random" departSpeed="max">
    <route edges="N2TL TL2S"/>
  </vehicle>
  <vehicle id="veh_2_83" type="car" depart="83" departLane="random" departSpeed="max">
    <route edges="S2TL TL2W"/>
  </vehicle>
  <person id="ped_2_84" personType="pedestrian" depart="84">
    <walk edges=":TL_c2"/>
  </person>
  <person id="ped_3_85" personType="pedestrian" depart="85">
    <walk edges=":TL_c3"/>
  </person>
  <vehicle id="veh_3_86" type="car" depart="86" departLane="random" departSpeed="max">
    <route edges="W2TL TL2S"/>
  </vehicle>
  <person id="ped_2_86" personType="pedestrian" depart="86">
    <walk edges=":TL_c2"/>
  </person>
  <vehicle id="veh_1_87" type="car" depart="87" departLane="random" departSpeed="max">
    <route edges="E2TL TL2N"/>
  </vehicle>
  <person id="ped_1_87" personType="pedestrian" depart="87">
    <walk edges=":TL_c1"/>
  </person>
  <vehicle id="veh_1_88" type="car" depart="88" departLane="random" departSpeed="max">
    <route edges="E2TL TL2N"/>
  </vehicle>
  <person id="ped_3_88" personType="pedestrian" depart="88">
    <walk edges=":TL_c3"/>
  </person>
  <vehicle id="veh_2_89" type="car" depart="89" departLane="random" departSpeed="max">
    <route edges="S2TL TL2E"/>
  </vehicle>
  <vehicle id="veh_0_90" type="car" depart="90" departLane="random" departSpeed="max">
    <route edges="N2TL TL2W"/>
  </vehicle>
  <vehicle id="veh_1_90" type="car" depart="90" departLane="random" departSpeed="max">
    <route edges="E2TL TL2W"/>
  </vehicle>
  <vehicle id="veh_1_91" type="car" depart="91" departLane="random" departSpeed="max">
    <route edges="E2TL TL2W"/>
  </vehicle>
  <person id="ped_0_91" personType="pedestrian" depart="91">
    <walk edges=":TL_c0"/>
  </person>
  <vehicle id="veh_0_95" type="car" depart="95" departLane="random" departSpeed="max">
    <route edges="N2TL TL2E"/>
  </vehicle>
  <person id="ped_2_95" personType="pedestrian" depart="95">
    <walk edges=":TL_c2"/>
  </person>
  <person id="ped_0_96" personType="pedestrian" depart="96">
    <walk edges=":TL_c0"/>
  </person>
  <vehicle id="veh_2_99" type="car" depart="99" departLane="random" departSpeed="max">
    <route edges="S2TL TL2N"/>
  </vehicle>
  <person id="ped_0_99" personType="pedestrian" depart="99">
    <walk edges=":TL_c0"/>
  </person>
  <person id="ped_3_99" personType="pedestrian" depart="99">
    <walk edges=":TL_c3"/>
  </person>
  <person id="ped_1_100" personType="pedestrian" depart="100">
    <walk edges=":TL_c1"/>
  </person>
  <person id="ped_2_100" personType="pedestrian" depart="100">
    <walk edges=":TL_c2"/>
  </person>
  <vehicle id="veh_3_101" type="car" depart="101" departLane="random" departSpeed="max">
    <route edges="W2TL TL2S"/>
  </vehicle>
  <vehicle id="veh_1_102" type="car" depart="102" departLane="random" departSpeed="max">
    <route edges="E2TL TL2N"/>
  </vehicle>
  <person id="ped_2_102" personType="pedestrian" depart="102">
    <walk edges=":TL_c2"/>
  </person>
  <vehicle id="veh_2_103" type="car" depart="103" departLane="random" departSpeed="max">
    <route edges="S2TL TL2W"/>
  </vehicle>
  <person id="ped_1_103" personType="pedestrian" depart="103">
    <walk edges=":TL_c1"/>
  </person>
  <vehicle id="veh_2_104" type="car" depart="104" departLane="random" departSpeed="max">
    <route edges="S2TL TL2E"/>
  </vehicle>
  <vehicle id="veh_0_106" type="car" depart="106" departLane="random" departSpeed="max">
    <route edges="N2TL TL2E"/>
  </vehicle>
  <vehicle id="veh_1_108" type="car" depart="108" departLane="random" departSpeed="max">
    <route edges="E2TL TL2S"/>
  </vehicle>
  <person id="ped_1_108" personType="pedestrian" depart="108">
    <walk edges=":TL_c1"/>
  </person>
  <person id="ped_2_108" personType="pedestrian" depart="108">
    <walk edges=":TL_c2"/>
  </person>
  <vehicle id="veh_2_109" type="car" depart="109" departLane="random" departSpeed="max">
    <route edges="S2TL TL2W"/>
  </vehicle>
  <vehicle id="veh_0_110" type="car" depart="110" departLane="random" departSpeed="max">
    <route edges="N2TL TL2S"/>
  </vehicle>
  <vehicle id="veh_1_110" type="car" depart="110" departLane="random" departSpeed="max">
    <route edges="E2TL TL2S"/>
  </vehicle>
  <vehicle id="veh_1_111" type="car" depart="111" departLane="random" departSpeed="max">
    <route edges="E2TL TL2N"/>
  </vehicle>
  <person id="ped_3_111" personType="pedestrian" depart="111">
    <walk edges=":TL_c3"/>
  </person>
  <vehicle id="veh_0_112" type="car" depart="112" departLane="random" departSpeed="max">
    <route edges="N2TL TL2S"/>
  </vehicle>
  <person id="ped_1_112" personType="pedestrian" depart="112">
    <walk edges=":TL_c1"/>
  </person>
  <vehicle id="veh_3_113" type="car" depart="113" departLane="random" departSpeed="max">
    <route edges="W2TL TL2S"/>
  </vehicle>
  <vehicle id="veh_2_114" type="car" depart="114" departLane="random" departSpeed="max">
    <route edges="S2TL TL2E"/>
  </vehicle>
  <person id="ped_0_114" personType="pedestrian" depart="114">
    <walk edges=":TL_c0"/>
  </person>
  <person id="ped_1_115" personType="pedestrian" depart="115">
    <walk edges=":TL_c1"/>
  </person>
  <vehicle id="veh_0_116" type="car" depart="116" departLane="random" departSpeed="max">
    <route edges="N2TL TL2W"/>
  </vehicle>
  <vehicle id="veh_2_117" type="car" depart="117" departLane="random" departSpeed="max">
    <route edges="S2TL TL2W"/>
  </vehicle>
  <person id="ped_1_117" personType="pedestrian" depart="117">
    <walk edges=":TL_c1"/>
  </person>
  <vehicle id="veh_0_118" type="car" depart="118" departLane="random" departSpeed="max">
    <route edges="N2TL TL2S"/>
  </vehicle>
  <vehicle id="veh_3_118" type="car" depart="118" departLane="random" departSpeed="max">
    <route edges="W2TL TL2S"/>
  </vehicle>
  <vehicle id="veh_2_120" type="car" depart="120" departLane="random" departSpeed="max">
    <route edges="S2TL TL2W"/>
  </vehicle>
  <person id="ped_1_120" personType="pedestrian" depart="120">
    <walk edges=":TL_c1"/>
  </person>
  <vehicle id="veh_3_121" type="car" depart="121" departLane="random" departSpeed="max">
    <route edges="W2TL TL2N"/>
  </vehicle>
  <vehicle id="veh_0_122" type="car" depart="122" departLane="random" departSpeed="max">
    <route edges="N2TL TL2W"/>
  </vehicle>
  <vehicle id="veh_1_123" type="car" depart="123" departLane="random" departSpeed="max">
    <route edges="E2TL TL2N"/>
  </vehicle>
  <vehicle id="veh_3_125" type="car" depart="125" departLane="random" departSpeed="max">
    <route edges="W2TL TL2E"/>
  </vehicle>
  <person id="ped_2_125" personType="pedestrian" depart="125">
    <walk edges=":TL_c2"/>
  </person>
  <person id="ped_3_125" personType="pedestrian" depart="125">
    <walk edges=":TL_c3"/>
  </person>
  <person id="ped_1_126" personType="pedestrian" depart="126">
    <walk edges=":TL_c1"/>
  </person>
  <vehicle id="veh_1_128" type="car" depart="128" departLane="random" departSpeed="max">
    <route edges="E2TL TL2W"/>
  </vehicle>
  <vehicle id="veh_2_132" type="car" depart="132" departLane="random" departSpeed="max">
    <route edges="S2TL TL2N"/>
  </vehicle>
  <person id="ped_1_132" personType="pedestrian" depart="132">
    <walk edges=":TL_c1"/>
  </person>
  <person id="ped_3_132" personType="pedestrian" depart="132">
    <walk edges=":TL_c3"/>
  </person>
  <vehicle id="veh_3_133" type="car" depart="133" departLane="random" departSpeed="max">
    <route edges="W2TL TL2E"/>
  </vehicle>
  <person id="ped_3_133" personType="pedestrian" depart="133">
    <walk edges=":TL_c3"/>
  </person>
  <vehicle id="veh_1_134" type="car" depart="134" departLane="random" departSpeed="max">
    <route edges="E2TL TL2S"/>
  </vehicle>
  <person id="ped_1_134" personType="pedestrian" depart="134">
    <walk edges=":TL_c1"/>
  </person>
  <person id="ped_2_134" personType="pedestrian" depart="134">
    <walk edges=":TL_c2"/>
  </person>
  <vehicle id="veh_2_136" type="car" depart="136" departLane="random" departSpeed="max">
    <route edges="S2TL TL2N"/>
  </vehicle>
  <vehicle id="veh_0_137" type="car" depart="137" departLane="random" departSpeed="max">
    <route edges="N2TL TL2E"/>
  </vehicle>
  <person id="ped_2_137" personType="pedestrian" depart="137">
    <walk edges=":TL_c2"/>
  </person>
  <vehicle id="veh_0_138" type="car" depart="138" departLane="random" departSpeed="max">
    <route edges="N2TL TL2E"/>
  </vehicle>
  <vehicle id="veh_3_138" type="car" depart="138" departLane="random" departSpeed="max">
    <route edges="W2TL TL2E"/>
  </vehicle>
  <person id="ped_0_138" personType="pedestrian" depart="138">
    <walk edges=":TL_c0"/>
  </person>
  <vehicle id="veh_1_139" type="car" depart="139" departLane="random" departSpeed="max">
    <route edges="E2TL TL2W"/>
  </vehicle>
  <person id="ped_0_139" personType="pedestrian" depart="139">
    <walk edges=":TL_c0"/>
  </person>
  <person id="ped_1_139" personType="pedestrian" depart="139">
    <walk edges=":TL_c1"/>
  </person>
  <person id="ped_2_139" personType="pedestrian" depart="139">
    <walk edges=":TL_c2"/>
  </person>
  <vehicle id="veh_3_140" type="car" depart="140" departLane="random" departSpeed="max">
    <route edges="W2TL TL2E"/>
  </vehicle>
  <vehicle id="veh_1_141" type="car" depart="141" departLane="random" departSpeed="max">
    <route edges="E2TL TL2N"/>
  </vehicle>
  <vehicle id="veh_2_141" type="car" depart="141" departLane="random" departSpeed="max">
    <route edges="S2TL TL2W"/>
  </vehicle>
  <person id="ped_0_141" personType="pedestrian" depart="141">
    <walk edges=":TL_c0"/>
  </person>
  <vehicle id="veh_0_142" type="car" depart="142" departLane="random" departSpeed="max">
    <route edges="N2TL TL2W"/>
  </vehicle>
  <person id="ped_0_142" personType="pedestrian" depart="142">
    <walk edges=":TL_c0"/>
  </person>
  <person id="ped_1_142" personType="pedestrian" depart="142">
    <walk edges=":TL_c1"/>
  </person>
  <vehicle id="veh_0_143" type="car" depart="143" departLane="random" departSpeed="max">
    <route edges="N2TL TL2E"/>
  </vehicle>
  <vehicle id="veh_3_143" type="car" depart="143" departLane="random" departSpeed="max">
    <route edges="W2TL TL2N"/>
  </vehicle>
  <person id="ped_0_144" personType="pedestrian" depart="144">
    <walk edges=":TL_c0"/>
  </person>
  <vehicle id="veh_0_146" type="car" depart="146" departLane="random" departSpeed="max">
    <route edges="N2TL TL2E"/>
  </vehicle>
  <person id="ped_1_146" personType="pedestrian" depart="146">
    <walk edges=":TL_c1"/>
  </person>
  <person id="ped_2_146" personType="pedestrian" depart="146">
    <walk edges=":TL_c2"/>
  </person>
  <vehicle id="veh_1_148" type="car" depart="148" departLane="random" departSpeed="max">
    <route edges="E2TL TL2N"/>
  </vehicle>
  <person id="ped_1_148" personType="pedestrian" depart="148">
    <walk edges=":TL_c1"/>
  </person>
  <person id="ped_2_148" personType="pedestrian" depart="148">
    <walk edges=":TL_c2"/>
  </person>
  <person id="ped_3_148" personType="pedestrian" depart="148">
    <walk edges=":TL_c3"/>
  </person>
  <person id="ped_1_149" personType="pedestrian" depart="149">
    <walk edges=":TL_c1"/>
  </person>
  <person id="ped_3_149" personType="pedestrian" depart="149">
    <walk edges=":TL_c3"/>
  </person>
  <vehicle id="veh_1_150" type="car" depart="150" departLane="random" departSpeed="max">
    <route edges="E2TL TL2S"/>
  </vehicle>
  <vehicle id="veh_1_154" type="car" depart="154" departLane="random" departSpeed="max">
    <route edges="E2TL TL2W"/>
  </vehicle>
  <vehicle id="veh_2_155" type="car" depart="155" departLane="random" departSpeed="max">
    <route edges="S2TL TL2N"/>
  </vehicle>
  <person id="ped_0_155" personType="pedestrian" depart="155">
    <walk edges=":TL_c0"/>
  </person>
  <vehicle id="veh_0_156" type="car" depart="156" departLane="random" departSpeed="max">
    <route edges="N2TL TL2W"/>
  </vehicle>
  <person id="ped_0_157" personType="pedestrian" depart="157">
    <walk edges=":TL_c0"/>
  </person>
  <person id="ped_1_157" personType="pedestrian" depart="157">
    <walk edges=":TL_c1"/>
  </person>
  <vehicle id="veh_2_158" type="car" depart="158" departLane="random" departSpeed="max">
    <route edges="S2TL TL2E"/>
  </vehicle>
  <person id="ped_1_158" personType="pedestrian" depart="158">
    <walk edges=":TL_c1"/>
  </person>
  <person id="ped_2_159" personType="pedestrian" depart="159">
    <walk edges=":TL_c2"/>
  </person>
  <person id="ped_3_159" personType="pedestrian" depart="159">
    <walk edges=":TL_c3"/>
  </person>
  <vehicle id="veh_3_161" type="car" depart="161" departLane="random" departSpeed="max">
    <route edges="W2TL TL2S"/>
  </vehicle>
  <vehicle id="veh_2_162" type="car" depart="162" departLane="random" departSpeed="max">
    <route edges="S2TL TL2E"/>
  </vehicle>
  <vehicle id="veh_0_163" type="car" depart="163" departLane="random" departSpeed="max">
    <route edges="N2TL TL2S"/>
  </vehicle>
  <person id="ped_2_165" personType="pedestrian" depart="165">
    <walk edges=":TL_c2"/>
  </person>
  <vehicle id="veh_0_166" type="car" depart="166" departLane="random" departSpeed="max">
    <route edges="N2TL TL2E"/>
  </vehicle>
  <person id="ped_0_166" personType="pedestrian" depart="166">
    <walk edges=":TL_c0"/>
  </person>
  <person id="ped_1_167" personType="pedestrian" depart="167">
    <walk edges=":TL_c1"/>
  </person>
  <vehicle id="veh_3_169" type="car" depart="169" departLane="random" departSpeed="max">
    <route edges="W2TL TL2N"/>
  </vehicle>
  <person id="ped_2_169" personType="pedestrian" depart="169">
    <walk edges=":TL_c2"/>
  </person>
  <person id="ped_3_171" personType="pedestrian" depart="171">
    <walk edges=":TL_c3"/>
  </person>
  <person id="ped_2_172" personType="pedestrian" depart="172">
    <walk edges=":TL_c2"/>
  </person>
  <person id="ped_0_173" personType="pedestrian" depart="173">
    <walk edges=":TL_c0"/>
  </person>
  <vehicle id="veh_1_174" type="car" depart="174" departLane="random" departSpeed="max">
    <route edges="E2TL TL2N"/>
  </vehicle>
  <person id="ped_2_174" personType="pedestrian" depart="174">
    <walk edges=":TL_c2"/>
  </person>
  <person id="ped_0_175" personType="pedestrian" depart="175">
    <walk edges=":TL_c0"/>
  </person>
  <vehicle id="veh_0_176" type="car" depart="176" departLane="random" departSpeed="max">
    <route edges="N2TL TL2W"/>
  </vehicle>
  <vehicle id="veh_3_176" type="car" depart="176" departLane="random" departSpeed="max">
    <route edges="W2TL TL2E"/>
  </vehicle>
  <person id="ped_3_180" personType="pedestrian" depart="180">
    <walk edges=":TL_c3"/>
  </person>
  <vehicle id="veh_0_181" type="car" depart="181" departLane="random" departSpeed="max">
    <route edges="N2TL TL2S"/>
  </vehicle>
  <vehicle id="veh_3_182" type="car" depart="182" departLane="random" departSpeed="max">
    <route edges="W2TL TL2S"/>
  </vehicle>
  <person id="ped_1_182" personType="pedestrian" depart="182">
    <walk edges=":TL_c1"/>
  </person>
  <person id="ped_2_182" personType="pedestrian" depart="182">
    <walk edges=":TL_c2"/>
  </person>
  <person id="ped_1_183" personType="pedestrian" depart="183">
    <walk edges=":TL_c1"/>
  </person>
  <person id="ped_0_184" personType="pedestrian" depart="184">
    <walk edges=":TL_c0"/>
  </person>
  <person id="ped_1_184" personType="pedestrian" depart="184">
    <walk edges=":TL_c1"/>
  </person>
  <vehicle id="veh_0_185" type="car" depart="185" departLane="random" departSpeed="max">
    <route edges="N2TL TL2E"/>
  </vehicle>
  <vehicle id="veh_1_185" type="car" depart="185" departLane="random" departSpeed="max">
    <route edges="E2TL TL2N"/>
  </vehicle>
  <person id="ped_3_185" personType="pedestrian" depart="185">
    <walk edges=":TL_c3"/>
  </person>
  <person id="ped_1_188" personType="pedestrian" depart="188">