<routes>
  <vType id="car" accel="1.0" decel="4.5" maxSpeed="25" length="5"/>
  <personType id="pedestrian" vClass="pedestrian" speed="1.0" impatience="0.0" jmCrossingGap="10.0" jmTimeGap="999"/>
  <vehicle id="veh_0_0" type="car" depart="0" departLane="random" departSpeed="max">
    <route edges="N2TL TL2W"/>
  </vehicle>
  <vehicle id="veh_1_6" type="car" depart="6" departLane="random" departSpeed="max">
    <route edges="E2TL TL2N"/>
  </vehicle>
  <vehicle id="veh_2_12" type="car" depart="12" departLane="random" departSpeed="max">
    <route edges="S2TL TL2N"/>
  </vehicle>
  <vehicle id="veh_3_18" type="car" depart="18" departLane="random" departSpeed="max">
    <route edges="W2TL TL2S"/>
  </vehicle>
  <vehicle id="veh_4_24" type="car" depart="24" departLane="random" departSpeed="max">
    <route edges="N2TL TL2S"/>
  </vehicle>
  <vehicle id="veh_5_30" type="car" depart="30" departLane="random" departSpeed="max">
    <route edges="E2TL TL2N"/>
  </vehicle>
  <person id="ped_0_34" personType="pedestrian" depart="34" color="1,1,0" guiShape="pedestrian">
    <walk edges=":DN_w0 N2TL :TL_w0 :TL_c0 :TL_w1 TL2E"/>
  </person>
  <vehicle id="veh_6_36" type="car" depart="36" departLane="random" departSpeed="max">
    <route edges="S2TL TL2N"/>
  </vehicle>
  <vehicle id="veh_7_42" type="car" depart="42" departLane="random" departSpeed="max">
    <route edges="W2TL TL2N"/>
  </vehicle>
  <person id="ped_1_44" personType="pedestrian" depart="44" color="1,1,0" guiShape="pedestrian">
    <walk edges=":DE_w0 E2TL :TL_w1 :TL_c1 :TL_w2 TL2S"/>
  </person>
  <person id="ped_2_46" personType="pedestrian" depart="46" color="1,1,0" guiShape="pedestrian">
    <walk edges=":DS_w0 S2TL :TL_w2 :TL_c2 :TL_w3 TL2W"/>
  </person>
  <vehicle id="veh_8_48" type="car" depart="48" departLane="random" departSpeed="max">
    <route edges="N2TL TL2W"/>
  </vehicle>
  <vehicle id="veh_9_54" type="car" depart="54" departLane="random" departSpeed="max">
    <route edges="E2TL TL2N"/>
  </vehicle>
  <vehicle id="veh_10_60" type="car" depart="60" departLane="random" departSpeed="max">
    <route edges="S2TL TL2W"/>
  </vehicle>
  <person id="ped_3_61" personType="pedestrian" depart="61" color="1,1,0" guiShape="pedestrian">
    <walk edges=":DW_w0 W2TL :TL_w3 :TL_c3 :TL_w0 TL2N"/>
  </person>
  <vehicle id="veh_11_66" type="car" depart="66" departLane="random" departSpeed="max">
    <route edges="W2TL TL2S"/>
  </vehicle>
  <person id="ped_4_67" personType="pedestrian" depart="67" color="1,1,0" guiShape="pedestrian">
    <walk edges=":DN_w0 N2TL :TL_w0 :TL_c0 :TL_w1 TL2E"/>
  </person>
  <person id="ped_5_68" personType="pedestrian" depart="68" color="1,1,0" guiShape="pedestrian">
    <walk edges=":DE_w0 E2TL :TL_w1 :TL_c1 :TL_w2 TL2S"/>
  </person>
  <person id="ped_6_69" personType="pedestrian" depart="69" color="1,1,0" guiShape="pedestrian">
    <walk edges=":DS_w0 S2TL :TL_w2 :TL_c2 :TL_w3 TL2W"/>
  </person>
  <vehicle id="veh_12_72" type="car" depart="72" departLane="random" departSpeed="max">
    <route edges="N2TL TL2W"/>
  </vehicle>
  <person id="ped_7_76" personType="pedestrian" depart="76" color="1,1,0" guiShape="pedestrian">
    <walk edges=":DW_w0 W2TL :TL_w3 :TL_c3 :TL_w0 TL2N"/>
  </person>
  <vehicle id="veh_13_78" type="car" depart="78" departLane="random" departSpeed="max">
    <route edges="E2TL TL2N"/>
  </vehicle>
  <vehicle id="veh_14_84" type="car" depart="84" departLane="random" departSpeed="max">
    <route edges="S2TL TL2W"/>
  </vehicle>
  <person id="ped_8_84" personType="pedestrian" depart="84" color="1,1,0" guiShape="pedestrian">
    <walk edges=":DN_w0 N2TL :TL_w0 :TL_c0 :TL_w1 TL2E"/>
  </person>
  <vehicle id="veh_15_90" type="car" depart="90" departLane="random" departSpeed="max">
    <route edges="W2TL TL2E"/>
  </vehicle>
  <person id="ped_9_95" personType="pedestrian" depart="95" color="1,1,0" guiShape="pedestrian">
    <walk edges=":DE_w0 E2TL :TL_w1 :TL_c1 :TL_w2 TL2S"/>
  </person>
  <vehicle id="veh_16_96" type="car" depart="96" departLane="random" departSpeed="max">
    <route edges="N2TL TL2E"/>
  </vehicle>
  <person id="ped_10_98" personType="pedestrian" depart="98" color="1,1,0" guiShape="pedestrian">
    <walk edges=":DS_w0 S2TL :TL_w2 :TL_c2 :TL_w3 TL2W"/>
  </person>
  <person id="ped_11_100" personType="pedestrian" depart="100" color="1,1,0" guiShape="pedestrian">
    <walk edges=":DW_w0 W2TL :TL_w3 :TL_c3 :TL_w0 TL2N"/>
  </person>
  <vehicle id="veh_17_102" type="car" depart="102" departLane="random" departSpeed="max">
    <route edges="E2TL TL2N"/>
  </vehicle>
  <vehicle id="veh_18_108" type="car" depart="108" departLane="random" departSpeed="max">
    <route edges="S2TL TL2N"/>
  </vehicle>
  <person id="ped_12_110" personType="pedestrian" depart="110" color="1,1,0" guiShape="pedestrian">
    <walk edges=":DN_w0 N2TL :TL_w0 :TL_c0 :TL_w1 TL2E"/>
  </person>
  <person id="ped_13_113" personType="pedestrian" depart="113" color="1,1,0" guiShape="pedestrian">
    <walk edges=":DE_w0 E2TL :TL_w1 :TL_c1 :TL_w2 TL2S"/>
  </person>
  <vehicle id="veh_19_114" type="car" depart="114" departLane="random" departSpeed="max">
    <route edges="W2TL TL2N"/>
  </vehicle>
  <vehicle id="veh_20_120" type="car" depart="120" departLane="random" departSpeed="max">
    <route edges="N2TL TL2E"/>
  </vehicle>
  <person id="ped_14_124" personType="pedestrian" depart="124" color="1,1,0" guiShape="pedestrian">
    <walk edges=":DS_w0 S2TL :TL_w2 :TL_c2 :TL_w3 TL2W"/>
  </person>
  <person id="ped_15_125" personType="pedestrian" depart="125" color="1,1,0" guiShape="pedestrian">
    <walk edges=":DW_w0 W2TL :TL_w3 :TL_c3 :TL_w0 TL2N"/>
  </person>
  <vehicle id="veh_21_126" type="car" depart="126" departLane="random" departSpeed="max">
    <route edges="E2TL TL2W"/>
  </vehicle>
  <person id="ped_16_127" personType="pedestrian" depart="127" color="1,1,0" guiShape="pedestrian">
    <walk edges=":DN_w0 N2TL :TL_w0 :TL_c0 :TL_w1 TL2E"/>
  </person>
  <person id="ped_17_131" personType="pedestrian" depart="131" color="1,1,0" guiShape="pedestrian">
    <walk edges=":DE_w0 E2TL :TL_w1 :TL_c1 :TL_w2 TL2S"/>
  </person>
  <vehicle id="veh_22_132" type="car" depart="132" departLane="random" departSpeed="max">
    <route edges="S2TL TL2W"/>
  </vehicle>
  <person id="ped_18_132" personType="pedestrian" depart="132" color="1,1,0" guiShape="pedestrian">
    <walk edges=":DS_w0 S2TL :TL_w2 :TL_c2 :TL_w3 TL2W"/>
  </person>
  <person id="ped_19_132" personType="pedestrian" depart="132" color="1,1,0" guiShape="pedestrian">
    <walk edges=":DW_w0 W2TL :TL_w3 :TL_c3 :TL_w0 TL2N"/>
  </person>
  <person id="ped_20_134" personType="pedestrian" depart="134" color="1,1,0" guiShape="pedestrian">
    <walk edges=":DN_w0 N2TL :TL_w0 :TL_c0 :TL_w1 TL2E"/>
  </person>
  <vehicle id="veh_23_138" type="car" depart="138" departLane="random" departSpeed="max">
    <route edges="W2TL TL2N"/>
  </vehicle>
  <vehicle id="veh_24_144" type="car" depart="144" departLane="random" departSpeed="max">
    <route edges="N2TL TL2W"/>
  </vehicle>
  <vehicle id="veh_25_150" type="car" depart="150" departLane="random" departSpeed="max">
    <route edges="E2TL TL2N"/>
  </vehicle>
  <person id="ped_21_152" personType="pedestrian" depart="152" color="1,1,0" guiShape="pedestrian">
    <walk edges=":DE_w0 E2TL :TL_w1 :TL_c1 :TL_w2 TL2S"/>
  </person>
  <person id="ped_22_153" personType="pedestrian" depart="153" color="1,1,0" guiShape="pedestrian">
    <walk edges=":DS_w0 S2TL :TL_w2 :TL_c2 :TL_w3 TL2W"/>
  </person>
  <vehicle id="veh_26_156" type="car" depart="156" departLane="random" departSpeed="max">
    <route edges="S2TL TL2W"/>
  </vehicle>
  <person id="ped_23_159" personType="pedestrian" depart="159" color="1,1,0" guiShape="pedestrian">
    <walk edges=":DW_w0 W2TL :TL_w3 :TL_c3 :TL_w0 TL2N"/>
  </person>
  <person id="ped_24_159" personType="pedestrian" depart="159" color="1,1,0" guiShape="pedestrian">
    <walk edges=":DN_w0 N2TL :TL_w0 :TL_c0 :TL_w1 TL2E"/>
  </person>
  <vehicle id="veh_27_162" type="car" depart="162" departLane="random" departSpeed="max">
    <route edges="W2TL TL2S"/>
  </vehicle>
  <person id="ped_25_162" personType="pedestrian" depart="162" color="1,1,0" guiShape="pedestrian">
    <walk edges=":DE_w0 E2TL :TL_w1 :TL_c1 :TL_w2 TL2S"/>
  </person>
  <person id="ped_26_164" personType="pedestrian" depart="164" color="1,1,0" guiShape="pedestrian">
    <walk edges=":DS_w0 S2TL :TL_w2 :TL_c2 :TL_w3 TL2W"/>
  </person>
  <person id="ped_27_165" personType="pedestrian" depart="165" color="1,1,0" guiShape="pedestrian">
    <walk edges=":DW_w0 W2TL :TL_w3 :TL_c3 :TL_w0 TL2N"/>
  </person>
  <vehicle id="veh_28_168" type="car" depart="168" departLane="random" departSpeed="max">
    <route edges="N2TL TL2W"/>
  </vehicle>
  <person id="ped_28_169" personType="pedestrian" depart="169" color="1,1,0" guiShape="pedestrian">
    <walk edges=":DN_w0 N2TL :TL_w0 :TL_c0 :TL_w1 TL2E"/>
  </person>
  <vehicle id="veh_29_174" type="car" depart="174" departLane="random" departSpeed="max">
    <route edges="E2TL TL2W"/>
  </vehicle>
  <person id="ped_29_174" personType="pedestrian" depart="174" color="1,1,0" guiShape="pedestrian">
    <walk edges=":DE_w0 E2TL :TL_w1 :TL_c1 :TL_w2 TL2S"/>
  </person>
  <person id="ped_30_177" personType="pedestrian" depart="177" color="1,1,0" guiShape="pedestrian">
    <walk edges=":DS_w0 S2TL :TL_w2 :TL_c2 :TL_w3 TL2W"/>
  </person>
  <person id="ped_31_179" personType="pedestrian" depart="179" color="1,1,0" guiShape="pedestrian">
    <walk edges=":DW_w0 W2TL :TL_w3 :TL_c3 :TL_w0 TL2N"/>
  </person>
  <vehicle id="veh_30_180" type="car" depart="180" departLane="random" departSpeed="max">
    <route edges="S2TL TL2E"/>
  </vehicle>
  <person id="ped_32_183" personType="pedestrian" depart="183" color="1,1,0" guiShape="pedestrian">
    <walk edges=":DN_w0 N2TL :TL_w0 :TL_c0 :TL_w1 TL2E"/>
  </person>
  <vehicle id="veh_31_186" type="car" depart="186" departLane="random" departSpeed="max">
    <route edges="W2TL TL2N"/>
  </vehicle>
  <person id="ped_33_186" personType="pedestrian" depart="186" color="1,1,0" guiShape="pedestrian">
    <walk edges=":DE_w0 E2TL :TL_w1 :TL_c1 :TL_w2 TL2S"/>
  </person>
  <vehicle id="veh_32_192" type="car" depart="192" departLane="random" departSpeed="max">
    <route edges="N2TL TL2S"/>
  </vehicle>
  <vehicle id="veh_33_198" type="car" depart="198" departLane="random" departSpeed="max">
    <route edges="E2TL TL2W"/>
  </vehicle>
  <person id="ped_34_198" personType="pedestrian" depart="198" color="1,1,0" guiShape="pedestrian">
    <walk edges=":DS_w0 S2TL :TL_w2 :TL_c2 :TL_w3 TL2W"/>
  </person>
  <person id="ped_35_201" personType="pedestrian" depart="201" color="1,1,0" guiShape="pedestrian">
    <walk edges=":DW_w0 W2TL :TL_w3 :TL_c3 :TL_w0 TL2N"/>
  </person>
  <person id="ped_36_203" personType="pedestrian" depart="203" color="1,1,0" guiShape="pedestrian">
    <walk edges=":DN_w0 N2TL :TL_w0 :TL_c0 :TL_w1 TL2E"/>
  </person>
  <vehicle id="veh_34_204" type="car" depart="204" departLane="random" departSpeed="max">
    <route edges="S2TL TL2E"/>
  </vehicle>
  <person id="ped_37_207" personType="pedestrian" depart="207" color="1,1,0" guiShape="pedestrian">
    <walk edges=":DE_w0 E2TL :TL_w1 :TL_c1 :TL_w2 TL2S"/>
  </person>
  <person id="ped_38_207" personType="pedestrian" depart="207" color="1,1,0" guiShape="pedestrian">
    <walk edges=":DS_w0 S2TL :TL_w2 :TL_c2 :TL_w3 TL2W"/>
  </person>
  <vehicle id="veh_35_210" type="car" depart="210" departLane="random" departSpeed="max">
    <route edges="W2TL TL2N"/>
  </vehicle>
  <person id="ped_39_210" personType="pedestrian" depart="210" color="1,1,0" guiShape="pedestrian">
    <walk edges=":DW_w0 W2TL :TL_w3 :TL_c3 :TL_w0 TL2N"/>
  </person>
  <vehicle id="veh_36_216" type="car" depart="216" departLane="random" departSpeed="max">
    <route edges="N2TL TL2E"/>
  </vehicle>
  <vehicle id="veh_37_222" type="car" depart="222" departLane="random" departSpeed="max">
    <route edges="E2TL TL2W"/>
  </vehicle>
  <person id="ped_40_223" personType="pedestrian" depart="223" color="1,1,0" guiShape="pedestrian">
    <walk edges=":DN_w0 N2TL :TL_w0 :TL_c0 :TL_w1 TL2E"/>
  </person>
  <vehicle id="veh_38_228" type="car" depart="228" departLane="random" departSpeed="max">
    <route edges="S2TL TL2E"/>
  </vehicle>
  <vehicle id="veh_39_234" type="car" depart="234" departLane="random" departSpeed="max">
    <route edges="W2TL TL2E"/>
  </vehicle>
  <person id="ped_41_235" personType="pedestrian" depart="235" color="1,1,0" guiShape="pedestrian">
    <walk edges=":DE_w0 E2TL :TL_w1 :TL_c1 :TL_w2 TL2S"/>
  </person>
  <vehicle id="veh_40_240" type="car" depart="240" departLane="random" departSpeed="max">
    <route edges="N2TL TL2S"/>
  </vehicle>
  <vehicle id="veh_41_246" type="car" depart="246" departLane="random" departSpeed="max">
    <route edges="E2TL TL2N"/>
  </vehicle>
  <person id="ped_42_248" personType="pedestrian" depart="248" color="1,1,0" guiShape="pedestrian">
    <walk edges=":DS_w0 S2TL :TL_w2 :TL_c2 :TL_w3 TL2W"/>
  </person>
  <person id="ped_43_248" personType="pedestrian" depart="248" color="1,1,0" guiShape="pedestrian">
    <walk edges=":DW_w0 W2TL :TL_w3 :TL_c3 :TL_w0 TL2N"/>
  </person>
  <vehicle id="veh_42_252" type="car" depart="252" departLane="random" departSpeed="max">
    <route edges="S2TL TL2N"/>
  </vehicle>
  <vehicle id="veh_43_258" type="car" depart="258" departLane="random" departSpeed="max">
    <route edges="W2TL TL2E"/>
  </vehicle>
  <person id="ped_44_260" personType="pedestrian" depart="260" color="1,1,0" guiShape="pedestrian">
    <walk edges=":DN_w0 N2TL :TL_w0 :TL_c0 :TL_w1 TL2E"/>
  </person>
  <person id="ped_45_261" personType="pedestrian" depart="261" color="1,1,0" guiShape="pedestrian">
    <walk edges=":DE_w0 E2TL :TL_w1 :TL_c1 :TL_w2 TL2S"/>
  </person>
  <person id="ped_46_263" personType="pedestrian" depart="263" color="1,1,0" guiShape="pedestrian">
    <walk edges=":DS_w0 S2TL :TL_w2 :TL_c2 :TL_w3 TL2W"/>
  </person>
  <vehicle id="veh_44_264" type="car" depart="264" departLane="random" departSpeed="max">
    <route edges="N2TL TL2E"/>
  </vehicle>
  <vehicle id="veh_45_270" type="car" depart="270" departLane="random" departSpeed="max">
    <route edges="E2TL TL2N"/>
  </vehicle>
  <person id="ped_47_273" personType="pedestrian" depart="273" color="1,1,0" guiShape="pedestrian">
    <walk edges=":DW_w0 W2TL :TL_w3 :TL_c3 :TL_w0 TL2N"/>
  </person>
  <person id="ped_48_274" personType="pedestrian" depart="274" color="1,1,0" guiShape="pedestrian">
    <walk edges=":DN_w0 N2TL :TL_w0 :TL_c0 :TL_w1 TL2E"/>
  </person>
  <vehicle id="veh_46_276" type="car" depart="276" departLane="random" departSpeed="max">
    <route edges="S2TL TL2E"/>
  </vehicle>
  <vehicle id="veh_47_282" type="car" depart="282" departLane="random" departSpeed="max">
    <route edges="W2TL TL2N"/>
  </vehicle>
  <person id="ped_49_283" personType="pedestrian" depart="283" color="1,1,0" guiShape="pedestrian">
    <walk edges=":DE_w0 E2TL :TL_w1 :TL_c1 :TL_w2 TL2S"/>
  </person>
  <vehicle id="veh_48_288" type="car" depart="288" departLane="random" departSpeed="max">
    <route edges="N2TL TL2S"/>
  </vehicle>
  <person id="ped_50_292" personType="pedestrian" depart="292" color="1,1,0" guiShape="pedestrian">
    <walk edges=":DS_w0 S2TL :TL_w2 :TL_c2 :TL_w3 TL2W"/>
  </person>
  <vehicle id="veh_49_294" type="car" depart="294" departLane="random" departSpeed="max">
    <route edges="E2TL TL2S"/>
  </vehicle>
  <person id="ped_51_298" personType="pedestrian" depart="298" color="1,1,0" guiShape="pedestrian">
    <walk edges=":DW_w0 W2TL :TL_w3 :TL_c3 :TL_w0 TL2N"/>
  </person>
  <vehicle id="veh_50_300" type="car" depart="300" departLane="random" departSpeed="max">
    <route edges="S2TL TL2W"/>
  </vehicle>
  <person id="ped_52_305" personType="pedestrian" depart="305" color="1,1,0" guiShape="pedestrian">
    <walk edges=":DN_w0 N2TL :TL_w0 :TL_c0 :TL_w1 TL2E"/>
  </person>
  <vehicle id="veh_51_306" type="car" depart="306" departLane="random" departSpeed="max">
    <route edges="W2TL TL2E"/>
  </vehicle>
  <person id="ped_53_309" personType="pedestrian" depart="309" color="1,1,0" guiShape="pedestrian">
    <walk edges=":DE_w0 E2TL :TL_w1 :TL_c1 :TL_w2 TL2S"/>
  </person>
  <vehicle id="veh_52_312" type="car" depart="312" departLane="random" departSpeed="max">
    <route edges="N2TL TL2E"/>
  </vehicle>
  <person id="ped_54_312" personType="pedestrian" depart="312" color="1,1,0" guiShape="pedestrian">
    <walk edges=":DS_w0 S2TL :TL_w2 :TL_c2 :TL_w3 TL2W"/>
  </person>
  <vehicle id="veh_53_318" type="car" depart="318" departLane="random" departSpeed="max">
    <route edges="E2TL TL2W"/>
  </vehicle>
  <person id="ped_55_322" personType="pedestrian" depart="322" color="1,1,0" guiShape="pedestrian">
    <walk edges=":DW_w0 W2TL :TL_w3 :TL_c3 :TL_w0 TL2N"/>
  </person>
  <vehicle id="veh_54_324" type="car" depart="324" departLane="random" departSpeed="max">
    <route edges="S2TL TL2E"/>
  </vehicle>
  <person id="ped_56_326" personType="pedestrian" depart="326" color="1,1,0" guiShape="pedestrian">
    <walk edges=":DN_w0 N2TL :TL_w0 :TL_c0 :TL_w1 TL2E"/>
  </person>
  <person id="ped_57_326" personType="pedestrian" depart="326" color="1,1,0" guiShape="pedestrian">
    <walk edges=":DE_w0 E2TL :TL_w1 :TL_c1 :TL_w2 TL2S"/>
  </person>
  <vehicle id="veh_55_330" type="car" depart="330" departLane="random" departSpeed="max">
    <route edges="W2TL TL2S"/>
  </vehicle>
  <person id="ped_58_336" personType="pedestrian" depart="336" color="1,1,0" guiShape="pedestrian">
    <walk edges=":DS_w0 S2TL :TL_w2 :TL_c2 :TL_w3 TL2W"/>
  </person>
  <vehicle id="veh_56_337" type="car" depart="337" departLane="random" departSpeed="max">
    <route edges="N2TL TL2E"/>
  </vehicle>
  <person id="ped_59_341" personType="pedestrian" depart="341" color="1,1,0" guiShape="pedestrian">
    <walk edges=":DW_w0 W2TL :TL_w3 :TL_c3 :TL_w0 TL2N"/>
  </person>
  <person id="ped_60_342" personType="pedestrian" depart="342" color="1,1,0" guiShape="pedestrian">
    <walk edges=":DN_w0 N2TL :TL_w0 :TL_c0 :TL_w1 TL2E"/>
  </person>
  <vehicle id="veh_57_343" type="car" depart="343" departLane="random" departSpeed="max">
    <route edges="E2TL TL2S"/>
  </vehicle>
  <vehicle id="veh_58_349" type="car" depart="349" departLane="random" departSpeed="max">
    <route edges="S2TL TL2N"/>
  </vehicle>
  <person id="ped_61_352" personType="pedestrian" depart="352" color="1,1,0" guiShape="pedestrian">
    <walk edges=":DE_w0 E2TL :TL_w1 :TL_c1 :TL_w2 TL2S"/>
  </person>
  <person id="ped_62_353" personType="pedestrian" depart="353" color="1,1,0" guiShape="pedestrian">
    <walk edges=":DS_w0 S2TL :TL_w2 :TL_c2 :TL_w3 TL2W"/>
  </person>
  <vehicle id="veh_59_355" type="car" depart="355" departLane="random" departSpeed="max">
    <route edges="W2TL TL2S"/>
  </vehicle>
  <person id="ped_63_357" personType="pedestrian" depart="357" color="1,1,0" guiShape="pedestrian">
    <walk edges=":DW_w0 W2TL :TL_w3 :TL_c3 :TL_w0 TL2N"/>
  </person>
  <person id="ped_64_357" personType="pedestrian" depart="357" color="1,1,0" guiShape="pedestrian">
    <walk edges=":DN_w0 N2TL :TL_w0 :TL_c0 :TL_w1 TL2E"/>
  </person>
  <vehicle id="veh_60_361" type="car" depart="361" departLane="random" departSpeed="max">
    <route edges="N2TL TL2S"/>
  </vehicle>
  <person id="ped_65_365" personType="pedestrian" depart="365" color="1,1,0" guiShape="pedestrian">
    <walk edges=":DE_w0 E2TL :TL_w1 :TL_c1 :TL_w2 TL2S"/>
  </person>
  <vehicle id="veh_61_367" type="car" depart="367" departLane="random" departSpeed="max">
    <route edges="E2TL TL2W"/>
  </vehicle>
  <person id="ped_66_367" personType="pedestrian" depart="367" color="1,1,0" guiShape="pedestrian">
    <walk edges=":DS_w0 S2TL :TL_w2 :TL_c2 :TL_w3 TL2W"/>
  </person>
  <vehicle id="veh_62_373" type="car" depart="373" departLane="random" departSpeed="max">
    <route edges="S2TL TL2W"/>
  </vehicle>
  <person id="ped_67_375" personType="pedestrian" depart="375" color="1,1,0" guiShape="pedestrian">
    <walk edges=":DW_w0 W2TL :TL_w3 :TL_c3 :TL_w0 TL2N"/>
  </person>
  <vehicle id="veh_63_379" type="car" depart="379" departLane="random" departSpeed="max">
    <route edges="W2TL TL2E"/>
  </vehicle>
  <vehicle id="veh_64_385" type="car" depart="385" departLane="random" departSpeed="max">
    <route edges="N2TL TL2W"/>
  </vehicle>
  <person id="ped_68_386" personType="pedestrian" depart="386" color="1,1,0" guiShape="pedestrian">
    <walk edges=":DN_w0 N2TL :TL_w0 :TL_c0 :TL_w1 TL2E"/>
  </person>
  <person id="ped_69_389" personType="pedestrian" depart="389" color="1,1,0" guiShape="pedestrian">
    <walk edges=":DE_w0 E2TL :TL_w1 :TL_c1 :TL_w2 TL2S"/>
  </person>
  <vehicle id="veh_65_391" type="car" depart="391" departLane="random" departSpeed="max">
    <route edges="E2TL TL2N"/>
  </vehicle>
  <vehicle id="veh_66_397" type="car" depart="397" departLane="random" departSpeed="max">
    <route edges="S2TL TL2W"/>
  </vehicle>
  <person id="ped_70_400" personType="pedestrian" depart="400" color="1,1,0" guiShape="pedestrian">
    <walk edges=":DS_w0 S2TL :TL_w2 :TL_c2 :TL_w3 TL2W"/>
  </person>
  <vehicle id="veh_67_403" type="car" depart="403" departLane="random" departSpeed="max">
    <route edges="W2TL TL2N"/>
  </vehicle>
  <vehicle id="veh_68_409" type="car" depart="409" departLane="random" departSpeed="max">
    <route edges="N2TL TL2E"/>
  </vehicle>
  <vehicle id="veh_69_415" type="car" depart="415" departLane="random" departSpeed="max">
    <route edges="E2TL TL2W"/>
  </vehicle>
  <person id="ped_71_415" personType="pedestrian" depart="415" color="1,1,0" guiShape="pedestrian">
    <walk edges=":DW_w0 W2TL :TL_w3 :TL_c3 :TL_w0 TL2N"/>
  </person>
  <vehicle id="veh_70_421" type="car" depart="421" departLane="random" departSpeed="max">
    <route edges="S2TL TL2N"/>
  </vehicle>
  <vehicle id="veh_71_427" type="car" depart="427" departLane="random" departSpeed="max">
    <route edges="W2TL TL2E"/>
  </vehicle>
  <vehicle id="veh_72_433" type="car" depart="433" departLane="random" departSpeed="max">
    <route edges="N2TL TL2E"/>
  </vehicle>
  <vehicle id="veh_73_439" type="car" depart="439" departLane="random" departSpeed="max">
    <route edges="E2TL TL2N"/>
  </vehicle>
  <person id="ped_72_442" personType="pedestrian" depart="442" color="1,1,0" guiShape="pedestrian">
    <walk edges=":DN_w0 N2TL :TL_w0 :TL_c0 :TL_w1 TL2E"/>
  </person>
  <vehicle id="veh_74_445" type="car" depart="445" departLane="random" departSpeed="max">
    <route edges="S2TL TL2N"/>
  </vehicle>
  <vehicle id="veh_75_451" type="car" depart="451" departLane="random" departSpeed="max">
    <route edges="W2TL TL2E"/>
  </vehicle>
  <vehicle id="veh_76_457" type="car" depart="457" departLane="random" departSpeed="max">
    <route edges="N2TL TL2S"/>
  </vehicle>
  <person id="ped_73_459" personType="pedestrian" depart="459" color="1,1,0" guiShape="pedestrian">
    <walk edges=":DE_w0 E2TL :TL_w1 :TL_c1 :TL_w2 TL2S"/>
  </person>
  <person id="ped_74_460" personType="pedestrian" depart="460" color="1,1,0" guiShape="pedestrian">
    <walk edges=":DS_w0 S2TL :TL_w2 :TL_c2 :TL_w3 TL2W"/>
  </person>
  <vehicle id="veh_77_463" type="car" depart="463" departLane="random" departSpeed="max">
    <route edges="E2TL TL2S"/>
  </vehicle>
  <vehicle id="veh_78_469" type="car" depart="469" departLane="random" departSpeed="max">
    <route edges="S2TL TL2W"/>
  </vehicle>
  <vehicle id="veh_79_475" type="car" depart="475" departLane="random" departSpeed="max">
    <route edges="W2TL TL2E"/>
  </vehicle>
  <vehicle id="veh_80_481" type="car" depart="481" departLane="random" departSpeed="max">
    <route edges="N2TL TL2E"/>
  </vehicle>
  <person id="ped_75_484" personType="pedestrian" depart="484" color="1,1,0" guiShape="pedestrian">
    <walk edges=":DW_w0 W2TL :TL_w3 :TL_c3 :TL_w0 TL2N"/>
  </person>
  <vehicle id="veh_81_487" type="car" depart="487" departLane="random" departSpeed="max">
    <route edges="E2TL TL2S"/>
  </vehicle>
  <vehicle id="veh_82_493" type="car" depart="493" departLane="random" departSpeed="max">
    <route edges="S2TL TL2E"/>
  </vehicle>
  <vehicle id="veh_83_499" type="car" depart="499" departLane="random" departSpeed="max">
    <route edges="W2TL TL2N"/>
  </vehicle>
  <vehicle id="veh_84_505" type="car" depart="505" departLane="random" departSpeed="max">
    <route edges="N2TL TL2W"/>
  </vehicle>
  <person id="ped_76_509" personType="pedestrian" depart="509" color="1,1,0" guiShape="pedestrian">
    <walk edges=":DN_w0 N2TL :TL_w0 :TL_c0 :TL_w1 TL2E"/>
  </person>
  <vehicle id="veh_85_511" type="car" depart="511" departLane="random" departSpeed="max">
    <route edges="E2TL TL2S"/>
  </vehicle>
  <vehicle id="veh_86_517" type="car" depart="517" departLane="random" departSpeed="max">
    <route edges="S2TL TL2W"/>
  </vehicle>
  <vehicle id="veh_87_523" type="car" depart="523" departLane="random" departSpeed="max">
    <route edges="W2TL TL2S"/>
  </vehicle>
  <vehicle id="veh_88_529" type="car" depart="529" departLane="random" departSpeed="max">
    <route edges="N2TL TL2W"/>
  </vehicle>
  <vehicle id="veh_89_535" type="car" depart="535" departLane="random" departSpeed="max">
    <route edges="E2TL TL2N"/>
  </vehicle>
  <person id="ped_77_540" personType="pedestrian" depart="540" color="1,1,0" guiShape="pedestrian">
    <walk edges=":DE_w0 E2TL :TL_w1 :TL_c1 :TL_w2 TL2S"/>
  </person>
  <vehicle id="veh_90_541" type="car" depart="541" departLane="random" departSpeed="max">
    <route edges="S2TL TL2W"/>
  </vehicle>
  <person id="ped_78_542" personType="pedestrian" depart="542" color="1,1,0" guiShape="pedestrian">
    <walk edges=":DS_w0 S2TL :TL_w2 :TL_c2 :TL_w3 TL2W"/>
  </person>
  <person id="ped_79_542" personType="pedestrian" depart="542" color="1,1,0" guiShape="pedestrian">
    <walk edges=":DW_w0 W2TL :TL_w3 :TL_c3 :TL_w0 TL2N"/>
  </person>
  <vehicle id="veh_91_547" type="car" depart="547" departLane="random" departSpeed="max">
    <route edges="W2TL TL2S"/>
  </vehicle>
  <person id="ped_80_549" personType="pedestrian" depart="549" color="1,1,0" guiShape="pedestrian">
    <walk edges=":DN_w0 N2TL :TL_w0 :TL_c0 :TL_w1 TL2E"/>
  </person>
  <vehicle id="veh_92_553" type="car" depart="553" departLane="random" departSpeed="max">
    <route edges="N2TL TL2E"/>
  </vehicle>
  <vehicle id="veh_93_559" type="car" depart="559" departLane="random" departSpeed="max">
    <route edges="E2TL TL2W"/>
  </vehicle>
  <vehicle id="veh_94_565" type="car" depart="565" departLane="random" departSpeed="max">
    <route edges="S2TL TL2W"/>
  </vehicle>
  <vehicle id="veh_95_571" type="car" depart="571" departLane="random" departSpeed="max">
    <route edges="W2TL TL2N"/>
  </vehicle>
  <vehicle id="veh_96_577" type="car" depart="577" departLane="random" departSpeed="max">
    <route edges="N2TL TL2E"/>
  </vehicle>
  <vehicle id="veh_97_583" type="car" depart="583" departLane="random" departSpeed="max">
    <route edges="E2TL TL2S"/>
  </vehicle>
  <vehicle id="veh_98_589" type="car" depart="589" departLane="random" departSpeed="max">
    <route edges="S2TL TL2E"/>
  </vehicle>
  <vehicle id="veh_99_595" type="car" depart="595" departLane="random" departSpeed="max">
    <route edges="W2TL TL2E"/>
  </vehicle>
  <vehicle id="veh_100_601" type="car" depart="601" departLane="random" departSpeed="max">
    <route edges="N2TL TL2W"/>
  </vehicle>
  <vehicle id="veh_101_607" type="car" depart="607" departLane="random" departSpeed="max">
    <route edges="E2TL TL2W"/>
  </vehicle>
  <vehicle id="veh_102_613" type="car" depart="613" departLane="random" departSpeed="max">
    <route edges="S2TL TL2W"/>
  </vehicle>
  <vehicle id="veh_103_619" type="car" depart="619" departLane="random" departSpeed="max">
    <route edges="W2TL TL2N"/>
  </vehicle>
  <vehicle id="veh_104_625" type="car" depart="625" departLane="random" departSpeed="max">
    <route edges="N2TL TL2W"/>
  </vehicle>
  <vehicle id="veh_105_631" type="car" depart="631" departLane="random" departSpeed="max">
    <route edges="E2TL TL2S"/>
  </vehicle>
  <vehicle id="veh_106_637" type="car" depart="637" departLane="random" departSpeed="max">
    <route edges="S2TL TL2N"/>
  </vehicle>
  <vehicle id="veh_107_643" type="car" depart="643" departLane="random" departSpeed="max">
    <route edges="W2TL TL2N"/>
  </vehicle>
  <vehicle id="veh_108_649" type="car" depart="649" departLane="random" departSpeed="max">
    <route edges="N2TL TL2E"/>
  </vehicle>
  <person id="ped_81_651" personType="pedestrian" depart="651" color="1,1,0" guiShape="pedestrian">
    <walk edges=":DE_w0 E2TL :TL_w1 :TL_c1 :TL_w2 TL2S"/>
  </person>
  <vehicle id="veh_109_655" type="car" depart="655" departLane="random" departSpeed="max">
    <route edges="E2TL TL2S"/>
  </vehicle>
  <vehicle id="veh_110_661" type="car" depart="661" departLane="random" departSpeed="max">
    <route edges="S2TL TL2E"/>
  </vehicle>
  <vehicle id="veh_111_668" type="car" depart="668" departLane="random" departSpeed="max">
    <route edges="W2TL TL2E"/>
  </vehicle>
  <vehicle id="veh_112_674" type="car" depart="674" departLane="random" departSpeed="max">
    <route edges="N2TL TL2E"/>
  </vehicle>
  <vehicle id="veh_113_680" type="car" depart="680" departLane="random" departSpeed="max">
    <route edges="E2TL TL2N"/>
  </vehicle>
  <vehicle id="veh_114_686" type="car" depart="686" departLane="random" departSpeed="max">
    <route edges="S2TL TL2W"/>
  </vehicle>
  <vehicle id="veh_115_692" type="car" depart="692" departLane="random" departSpeed="max">
    <route edges="W2TL TL2S"/>
  </vehicle>
  <vehicle id="veh_116_698" type="car" depart="698" departLane="random" departSpeed="max">
    <route edges="N2TL TL2S"/>
  </vehicle>
  <vehicle id="veh_117_704" type="car" depart="704" departLane="random" departSpeed="max">
    <route edges="E2TL TL2N"/>
  </vehicle>
  <vehicle id="veh_118_710" type="car" depart="710" departLane="random" departSpeed="max">