<routes>
  <vType id="car" accel="1.0" decel="4.5" maxSpeed="25" length="5"/>
  <personType id="pedestrian" vClass="pedestrian" speed="1.0" impatience="0.0" jmCrossingGap="10.0" jmTimeGap="999"/>
  <vehicle id="veh_0_1" type="car" depart="1" departLane="random" departSpeed="max">
    <route edges="N2TL TL2S"/>
  </vehicle>
  <vehicle id="veh_2_2" type="car" depart="2" departLane="random" departSpeed="max">
    <route edges="S2TL TL2E"/>
  </vehicle>
  <person id="ped_0_2" personType="pedestrian" depart="2" departPos="0">
    <walk edges=":DN_w0 N2TL :TL_w0 :TL_c0 :TL_w1 TL2E"/>
  </person>
  <vehicle id="veh_0_3" type="car" depart="3" departLane="random" departSpeed="max">
    <route edges="N2TL TL2E"/>
  </vehicle>
  <vehicle id="veh_2_4" type="car" depart="4" departLane="random" departSpeed="max">
    <route edges="S2TL TL2W"/>
  </vehicle>
  <person id="ped_2_5" personType="pedestrian" depart="5" departPos="0">
    <walk edges=":DS_w0 S2TL :TL_w2 :TL_c2 :TL_w3 TL2W"/>
  </person>
  <vehicle id="veh_0_6" type="car" depart="6" departLane="random" departSpeed="max">
    <route edges="N2TL TL2S"/>
  </vehicle>
  <vehicle id="veh_3_6" type="car" depart="6" departLane="random" departSpeed="max">
    <route edges="W2TL TL2S"/>
  </vehicle>
  <vehicle id="veh_0_7" type="car" depart="7" departLane="random" departSpeed="max">
    <route edges="N2TL TL2E"/>
  </vehicle>
  <vehicle id="veh_1_7" type="car" depart="7" departLane="random" departSpeed="max">
    <route edges="E2TL TL2W"/>
  </vehicle>
  <vehicle id="veh_3_7" type="car" depart="7" departLane="random" departSpeed="max">
    <route edges="W2TL TL2S"/>
  </vehicle>
  <person id="ped_1_7" personType="pedestrian" depart="7" departPos="0">
    <walk edges=":DE_w0 E2TL :TL_w1 :TL_c1 :TL_w2 TL2S"/>
  </person>
  <person id="ped_2_9" personType="pedestrian" depart="9" departPos="0">
    <walk edges=":DS_w0 S2TL :TL_w2 :TL_c2 :TL_w3 TL2W"/>
  </person>
  <vehicle id="veh_0_10" type="car" depart="10" departLane="random" departSpeed="max">
    <route edges="N2TL TL2E"/>
  </vehicle>
  <vehicle id="veh_2_10" type="car" depart="10" departLane="random" departSpeed="max">
    <route edges="S2TL TL2E"/>
  </vehicle>
  <person id="ped_0_10" personType="pedestrian" depart="10" departPos="0">
    <walk edges=":DN_w0 N2TL :TL_w0 :TL_c0 :TL_w1 TL2E"/>
  </person>
  <vehicle id="veh_3_11" type="car" depart="11" departLane="random" departSpeed="max">
    <route edges="W2TL TL2S"/>
  </vehicle>
  <vehicle id="veh_2_12" type="car" depart="12" departLane="random" departSpeed="max">
    <route edges="S2TL TL2N"/>
  </vehicle>
  <person id="ped_0_12" personType="pedestrian" depart="12" departPos="0">
    <walk edges=":DN_w0 N2TL :TL_w0 :TL_c0 :TL_w1 TL2E"/>
  </person>
  <person id="ped_3_12" personType="pedestrian" depart="12" departPos="0">
    <walk edges=":DW_w0 W2TL :TL_w3 :TL_c3 :TL_w0 TL2N"/>
  </person>
  <person id="ped_1_13" personType="pedestrian" depart="13" departPos="0">
    <walk edges=":DE_w0 E2TL :TL_w1 :TL_c1 :TL_w2 TL2S"/>
  </person>
  <vehicle id="veh_1_14" type="car" depart="14" departLane="random" departSpeed="max">
    <route edges="E2TL TL2N"/>
  </vehicle>
  <vehicle id="veh_3_14" type="car" depart="14" departLane="random" departSpeed="max">
    <route edges="W2TL TL2N"/>
  </vehicle>
  <person id="ped_0_14" personType="pedestrian" depart="14" departPos="0">
    <walk edges=":DN_w0 N2TL :TL_w0 :TL_c0 :TL_w1 TL2E"/>
  </person>
  <person id="ped_2_14" personType="pedestrian" depart="14" departPos="0">
    <walk edges=":DS_w0 S2TL :TL_w2 :TL_c2 :TL_w3 TL2W"/>
  </person>
  <person id="ped_3_14" personType="pedestrian" depart="14" departPos="0">
    <walk edges=":DW_w0 W2TL :TL_w3 :TL_c3 :TL_w0 TL2N"/>
  </person>
  <vehicle id="veh_2_16" type="car" depart="16" departLane="random" departSpeed="max">
    <route edges="S2TL TL2E"/>
  </vehicle>
  <vehicle id="veh_1_17" type="car" depart="17" departLane="random" departSpeed="max">
    <route edges="E2TL TL2W"/>
  </vehicle>
  <vehicle id="veh_3_17" type="car" depart="17" departLane="random" departSpeed="max">
    <route edges="W2TL TL2S"/>
  </vehicle>
  <vehicle id="veh_0_18" type="car" depart="18" departLane="random" departSpeed="max">
    <route edges="N2TL TL2S"/>
  </vehicle>
  <vehicle id="veh_3_18" type="car" depart="18" departLane="random" departSpeed="max">
    <route edges="W2TL TL2E"/>
  </vehicle>
  <person id="ped_1_18" personType="pedestrian" depart="18" departPos="0">
    <walk edges=":DE_w0 E2TL :TL_w1 :TL_c1 :TL_w2 TL2S"/>
  </person>
  <vehicle id="veh_1_19" type="car" depart="19" departLane="random" departSpeed="max">
    <route edges="E2TL TL2W"/>
  </vehicle>
  <vehicle id="veh_0_20" type="car" depart="20" departLane="random" departSpeed="max">
    <route edges="N2TL TL2S"/>
  </vehicle>
  <person id="ped_2_20" personType="pedestrian" depart="20" departPos="0">
    <walk edges=":DS_w0 S2TL :TL_w2 :TL_c2 :TL_w3 TL2W"/>
  </person>
  <vehicle id="veh_0_21" type="car" depart="21" departLane="random" departSpeed="max">
    <route edges="N2TL TL2S"/>
  </vehicle>
  <vehicle id="veh_0_22" type="car" depart="22" departLane="random" departSpeed="max">
    <route edges="N2TL TL2S"/>
  </vehicle>
  <vehicle id="veh_2_22" type="car" depart="22" departLane="random" departSpeed="max">
    <route edges="S2TL TL2N"/>
  </vehicle>
  <vehicle id="veh_3_22" type="car" depart="22" departLane="random" departSpeed="max">
    <route edges="W2TL TL2S"/>
  </vehicle>
  <person id="ped_0_22" personType="pedestrian" depart="22" departPos="0">
    <walk edges=":DN_w0 N2TL :TL_w0 :TL_c0 :TL_w1 TL2E"/>
  </person>
  <person id="ped_1_22" personType="pedestrian" depart="22" departPos="0">
    <walk edges=":DE_w0 E2TL :TL_w1 :TL_c1 :TL_w2 TL2S"/>
  </person>
  <vehicle id="veh_3_24" type="car" depart="24" departLane="random" departSpeed="max">
    <route edges="W2TL TL2E"/>
  </vehicle>
  <person id="ped_1_25" personType="pedestrian" depart="25" departPos="0">
    <walk edges=":DE_w0 E2TL :TL_w1 :TL_c1 :TL_w2 TL2S"/>
  </person>
  <person id="ped_2_25" personType="pedestrian" depart="25" departPos="0">
    <walk edges=":DS_w0 S2TL :TL_w2 :TL_c2 :TL_w3 TL2W"/>
  </person>
  <person id="ped_0_26" personType="pedestrian" depart="26" departPos="0">
    <walk edges=":DN_w0 N2TL :TL_w0 :TL_c0 :TL_w1 TL2E"/>
  </person>
  <person id="ped_1_26" personType="pedestrian" depart="26" departPos="0">
    <walk edges=":DE_w0 E2TL :TL_w1 :TL_c1 :TL_w2 TL2S"/>
  </person>
  <person id="ped_3_26" personType="pedestrian" depart="26" departPos="0">
    <walk edges=":DW_w0 W2TL :TL_w3 :TL_c3 :TL_w0 TL2N"/>
  </person>
  <vehicle id="veh_1_27" type="car" depart="27" departLane="random" departSpeed="max">
    <route edges="E2TL TL2N"/>
  </vehicle>
  <vehicle id="veh_1_28" type="car" depart="28" departLane="random" departSpeed="max">
    <route edges="E2TL TL2W"/>
  </vehicle>
  <vehicle id="veh_1_29" type="car" depart="29" departLane="random" departSpeed="max">
    <route edges="E2TL TL2N"/>
  </vehicle>
  <vehicle id="veh_3_29" type="car" depart="29" departLane="random" departSpeed="max">
    <route edges="W2TL TL2N"/>
  </vehicle>
  <person id="ped_1_29" personType="pedestrian" depart="29" departPos="0">
    <walk edges=":DE_w0 E2TL :TL_w1 :TL_c1 :TL_w2 TL2S"/>
  </person>
  <person id="ped_3_30" personType="pedestrian" depart="30" departPos="0">
    <walk edges=":DW_w0 W2TL :TL_w3 :TL_c3 :TL_w0 TL2N"/>
  </person>
  <person id="ped_2_31" personType="pedestrian" depart="31" departPos="0">
    <walk edges=":DS_w0 S2TL :TL_w2 :TL_c2 :TL_w3 TL2W"/>
  </person>
  <vehicle id="veh_2_32" type="car" depart="32" departLane="random" departSpeed="max">
    <route edges="S2TL TL2E"/>
  </vehicle>
  <person id="ped_1_32" personType="pedestrian" depart="32" departPos="0">
    <walk edges=":DE_w0 E2TL :TL_w1 :TL_c1 :TL_w2 TL2S"/>
  </person>
  <person id="ped_2_32" personType="pedestrian" depart="32" departPos="0">
    <walk edges=":DS_w0 S2TL :TL_w2 :TL_c2 :TL_w3 TL2W"/>
  </person>
  <person id="ped_1_33" personType="pedestrian" depart="33" departPos="0">
    <walk edges=":DE_w0 E2TL :TL_w1 :TL_c1 :TL_w2 TL2S"/>
  </person>
  <vehicle id="veh_0_35" type="car" depart="35" departLane="random" departSpeed="max">
    <route edges="N2TL TL2E"/>
  </vehicle>
  <person id="ped_1_35" personType="pedestrian" depart="35" departPos="0">
    <walk edges=":DE_w0 E2TL :TL_w1 :TL_c1 :TL_w2 TL2S"/>
  </person>
  <vehicle id="veh_1_36" type="car" depart="36" departLane="random" departSpeed="max">
    <route edges="E2TL TL2S"/>
  </vehicle>
  <person id="ped_2_36" personType="pedestrian" depart="36" departPos="0">
    <walk edges=":DS_w0 S2TL :TL_w2 :TL_c2 :TL_w3 TL2W"/>
  </person>
  <vehicle id="veh_1_37" type="car" depart="37" departLane="random" departSpeed="max">
    <route edges="E2TL TL2W"/>
  </vehicle>
  <person id="ped_0_38" personType="pedestrian" depart="38" departPos="0">
    <walk edges=":DN_w0 N2TL :TL_w0 :TL_c0 :TL_w1 TL2E"/>
  </person>
  <person id="ped_1_38" personType="pedestrian" depart="38" departPos="0">
    <walk edges=":DE_w0 E2TL :TL_w1 :TL_c1 :TL_w2 TL2S"/>
  </person>
  <person id="ped_2_40" personType="pedestrian" depart="40" departPos="0">
    <walk edges=":DS_w0 S2TL :TL_w2 :TL_c2 :TL_w3 TL2W"/>
  </person>
  <vehicle id="veh_1_41" type="car" depart="41" departLane="random" departSpeed="max">
    <route edges="E2TL TL2S"/>
  </vehicle>
  <vehicle id="veh_3_41" type="car" depart="41" departLane="random" departSpeed="max">
    <route edges="W2TL TL2S"/>
  </vehicle>
  <vehicle id="veh_0_43" type="car" depart="43" departLane="random" departSpeed="max">
    <route edges="N2TL TL2S"/>
  </vehicle>
  <vehicle id="veh_1_43" type="car" depart="43" departLane="random" departSpeed="max">
    <route edges="E2TL TL2N"/>
  </vehicle>
  <person id="ped_2_43" personType="pedestrian" depart="43" departPos="0">
    <walk edges=":DS_w0 S2TL :TL_w2 :TL_c2 :TL_w3 TL2W"/>
  </person>
  <person id="ped_1_45" personType="pedestrian" depart="45" departPos="0">
    <walk edges=":DE_w0 E2TL :TL_w1 :TL_c1 :TL_w2 TL2S"/>
  </person>
  <vehicle id="veh_1_46" type="car" depart="46" departLane="random" departSpeed="max">
    <route edges="E2TL TL2S"/>
  </vehicle>
  <vehicle id="veh_3_46" type="car" depart="46" departLane="random" departSpeed="max">
    <route edges="W2TL TL2S"/>
  </vehicle>
  <vehicle id="veh_3_47" type="car" depart="47" departLane="random" departSpeed="max">
    <route edges="W2TL TL2N"/>
  </vehicle>
  <person id="ped_2_47" personType="pedestrian" depart="47" departPos="0">
    <walk edges=":DS_w0 S2TL :TL_w2 :TL_c2 :TL_w3 TL2W"/>
  </person>
  <vehicle id="veh_1_48" type="car" depart="48" departLane="random" departSpeed="max">
    <route edges="E2TL TL2S"/>
  </vehicle>
  <vehicle id="veh_3_50" type="car" depart="50" departLane="random" departSpeed="max">
    <route edges="W2TL TL2N"/>
  </vehicle>
  <person id="ped_1_50" personType="pedestrian" depart="50" departPos="0">
    <walk edges=":DE_w0 E2TL :TL_w1 :TL_c1 :TL_w2 TL2S"/>
  </person>
  <vehicle id="veh_0_51" type="car" depart="51" departLane="random" departSpeed="max">
    <route edges="N2TL TL2S"/>
  </vehicle>
  <vehicle id="veh_2_52" type="car" depart="52" departLane="random" departSpeed="max">
    <route edges="S2TL TL2W"/>
  </vehicle>
  <vehicle id="veh_3_52" type="car" depart="52" departLane="random" departSpeed="max">
    <route edges="W2TL TL2S"/>
  </vehicle>
  <person id="ped_0_52" personType="pedestrian" depart="52" departPos="0">
    <walk edges=":DN_w0 N2TL :TL_w0 :TL_c0 :TL_w1 TL2E"/>
  </person>
  <vehicle id="veh_3_53" type="car" depart="53" departLane="random" departSpeed="max">
    <route edges="W2TL TL2E"/>
  </vehicle>
  <person id="ped_1_55" personType="pedestrian" depart="55" departPos="0">
    <walk edges=":DE_w0 E2TL :TL_w1 :TL_c1 :TL_w2 TL2S"/>
  </person>
  <vehicle id="veh_1_56" type="car" depart="56" departLane="random" departSpeed="max">
    <route edges="E2TL TL2W"/>
  </vehicle>
  <vehicle id="veh_1_57" type="car" depart="57" departLane="random" departSpeed="max">
    <route edges="E2TL TL2N"/>
  </vehicle>
  <vehicle id="veh_0_58" type="car" depart="58" departLane="random" departSpeed="max">
    <route edges="N2TL TL2E"/>
  </vehicle>
  <vehicle id="veh_3_58" type="car" depart="58" departLane="random" departSpeed="max">
    <route edges="W2TL TL2N"/>
  </vehicle>
  <person id="ped_0_58" personType="pedestrian" depart="58" departPos="0">
    <walk edges=":DN_w0 N2TL :TL_w0 :TL_c0 :TL_w1 TL2E"/>
  </person>
  <vehicle id="veh_1_59" type="car" depart="59" departLane="random" departSpeed="max">
    <route edges="E2TL TL2S"/>
  </vehicle>
  <vehicle id="veh_0_61" type="car" depart="61" departLane="random" departSpeed="max">
    <route edges="N2TL TL2W"/>
  </vehicle>
  <person id="ped_3_61" personType="pedestrian" depart="61" departPos="0">
    <walk edges=":DW_w0 W2TL :TL_w3 :TL_c3 :TL_w0 TL2N"/>
  </person>
  <person id="ped_0_62" personType="pedestrian" depart="62" departPos="0">
    <walk edges=":DN_w0 N2TL :TL_w0 :TL_c0 :TL_w1 TL2E"/>
  </person>
  <vehicle id="veh_1_64" type="car" depart="64" departLane="random" departSpeed="max">
    <route edges="E2TL TL2N"/>
  </vehicle>
  <vehicle id="veh_3_64" type="car" depart="64" departLane="random" departSpeed="max">
    <route edges="W2TL TL2N"/>
  </vehicle>
  <person id="ped_0_64" personType="pedestrian" depart="64" departPos="0">
    <walk edges=":DN_w0 N2TL :TL_w0 :TL_c0 :TL_w1 TL2E"/>
  </person>
  <person id="ped_3_64" personType="pedestrian" depart="64" departPos="0">
    <walk edges=":DW_w0 W2TL :TL_w3 :TL_c3 :TL_w0 TL2N"/>
  </person>
  <vehicle id="veh_3_65" type="car" depart="65" departLane="random" departSpeed="max">
    <route edges="W2TL TL2N"/>
  </vehicle>
  <vehicle id="veh_2_67" type="car" depart="67" departLane="random" departSpeed="max">
    <route edges="S2TL TL2W"/>
  </vehicle>
  <person id="ped_0_67" personType="pedestrian" depart="67" departPos="0">
    <walk edges=":DN_w0 N2TL :TL_w0 :TL_c0 :TL_w1 TL2E"/>
  </person>
  <person id="ped_0_68" personType="pedestrian" depart="68" departPos="0">
    <walk edges=":DN_w0 N2TL :TL_w0 :TL_c0 :TL_w1 TL2E"/>
  </person>
  <person id="ped_2_68" personType="pedestrian" depart="68" departPos="0">
    <walk edges=":DS_w0 S2TL :TL_w2 :TL_c2 :TL_w3 TL2W"/>
  </person>
  <person id="ped_3_69" personType="pedestrian" depart="69" departPos="0">
    <walk edges=":DW_w0 W2TL :TL_w3 :TL_c3 :TL_w0 TL2N"/>
  </person>
  <person id="ped_0_70" personType="pedestrian" depart="70" departPos="0">
    <walk edges=":DN_w0 N2TL :TL_w0 :TL_c0 :TL_w1 TL2E"/>
  </person>
  <person id="ped_1_70" personType="pedestrian" depart="70" departPos="0">
    <walk edges=":DE_w0 E2TL :TL_w1 :TL_c1 :TL_w2 TL2S"/>
  </person>
  <vehicle id="veh_1_72" type="car" depart="72" departLane="random" departSpeed="max">
    <route edges="E2TL TL2S"/>
  </vehicle>
  <vehicle id="veh_3_72" type="car" depart="72" departLane="random" departSpeed="max">
    <route edges="W2TL TL2E"/>
  </vehicle>
  <person id="ped_2_75" personType="pedestrian" depart="75" departPos="0">
    <walk edges=":DS_w0 S2TL :TL_w2 :TL_c2 :TL_w3 TL2W"/>
  </person>
  <person id="ped_0_76" personType="pedestrian" depart="76" departPos="0">
    <walk edges=":DN_w0 N2TL :TL_w0 :TL_c0 :TL_w1 TL2E"/>
  </person>
  <person id="ped_1_76" personType="pedestrian" depart="76" departPos="0">
    <walk edges=":DE_w0 E2TL :TL_w1 :TL_c1 :TL_w2 TL2S"/>
  </person>
  <person id="ped_1_77" personType="pedestrian" depart="77" departPos="0">
    <walk edges=":DE_w0 E2TL :TL_w1 :TL_c1 :TL_w2 TL2S"/>
  </person>
  <person id="ped_3_77" personType="pedestrian" depart="77" departPos="0">
    <walk edges=":DW_w0 W2TL :TL_w3 :TL_c3 :TL_w0 TL2N"/>
  </person>
  <vehicle id="veh_0_78" type="car" depart="78" departLane="random" departSpeed="max">
    <route edges="N2TL TL2E"/>
  </vehicle>
  <vehicle id="veh_2_79" type="car" depart="79" departLane="random" departSpeed="max">
    <route edges="S2TL TL2N"/>
  </vehicle>
  <person id="ped_0_79" personType="pedestrian" depart="79" departPos="0">
    <walk edges=":DN_w0 N2TL :TL_w0 :TL_c0 :TL_w1 TL2E"/>
  </person>
  <vehicle id="veh_0_80" type="car" depart="80" departLane="random" departSpeed="max">
    <route edges="N2TL TL2E"/>
  </vehicle>
  <person id="ped_3_80" personType="pedestrian" depart="80" departPos="0">
    <walk edges=":DW_w0 W2TL :TL_w3 :TL_c3 :TL_w0 TL2N"/>
  </person>
  <vehicle id="veh_1_81" type="car" depart="81" departLane="random" departSpeed="max">
    <route edges="E2TL TL2W"/>
  </vehicle>
  <vehicle id="veh_3_82" type="car" depart="82" departLane="random" departSpeed="max">
    <route edges="W2TL TL2S"/>
  </vehicle>
  <vehicle id="veh_0_83" type="car" depart="83" departLane="random" departSpeed="max">
    <route edges="N2TL TL2S"/>
  </vehicle>
  <vehicle id="veh_2_83" type="car" depart="83" departLane="random" departSpeed="max">
    <route edges="S2TL TL2W"/>
  </vehicle>
  <person id="ped_2_84" personType="pedestrian" depart="84" departPos="0">
    <walk edges=":DS_w0 S2TL :TL_w2 :TL_c2 :TL_w3 TL2W"/>
  </person>
  <person id="ped_3_85" personType="pedestrian" depart="85" departPos="0">
    <walk edges=":DW_w0 W2TL :TL_w3 :TL_c3 :TL_w0 TL2N"/>
  </person>
  <vehicle id="veh_3_86" type="car" depart="86" departLane="random" departSpeed="max">
    <route edges="W2TL TL2S"/>
  </vehicle>
  <person id="ped_2_86" personType="pedestrian" depart="86" departPos="0">
    <walk edges=":DS_w0 S2TL :TL_w2 :TL_c2 :TL_w3 TL2W"/>
  </person>
  <vehicle id="veh_1_87" type="car" depart="87" departLane="random" departSpeed="max">
    <route edges="E2TL TL2N"/>
  </vehicle>
  <person id="ped_1_87" personType="pedestrian" depart="87" departPos="0">
    <walk edges=":DE_w0 E2TL :TL_w1 :TL_c1 :TL_w2 TL2S"/>
  </person>
  <vehicle id="veh_1_88" type="car" depart="88" departLane="random" departSpeed="max">
    <route edges="E2TL TL2N"/>
  </vehicle>
  <person id="ped_3_88" personType="pedestrian" depart="88" departPos="0">
    <walk edges=":DW_w0 W2TL :TL_w3 :TL_c3 :TL_w0 TL2N"/>
  </person>
  <vehicle id="veh_2_89" type="car" depart="89" departLane="random" departSpeed="max">
    <route edges="S2TL TL2E"/>
  </vehicle>
  <vehicle id="veh_0_90" type="car" depart="90" departLane="random" departSpeed="max">
    <route edges="N2TL TL2W"/>
  </vehicle>
  <vehicle id="veh_1_90" type="car" depart="90" departLane="random" departSpeed="max">
    <route edges="E2TL TL2W"/>
  </vehicle>
  <vehicle id="veh_1_91" type="car" depart="91" departLane="random" departSpeed="max">
    <route edges="E2TL TL2W"/>
  </vehicle>
  <person id="ped_0_91" personType="pedestrian" depart="91" departPos="0">
    <walk edges=":DN_w0 N2TL :TL_w0 :TL_c0 :TL_w1 TL2E"/>
  </person>
  <vehicle id="veh_0_95" type="car" depart="95" departLane="random" departSpeed="max">
    <route edges="N2TL TL2E"/>
  </vehicle>
  <person id="ped_2_95" personType="pedestrian" depart="95" departPos="0">
    <walk edges=":DS_w0 S2TL :TL_w2 :TL_c2 :TL_w3 TL2W"/>
  </person>
  <person id="ped_0_96" personType="pedestrian" depart="96" departPos="0">
    <walk edges=":DN_w0 N2TL :TL_w0 :TL_c0 :TL_w1 TL2E"/>
  </person>
  <vehicle id="veh_2_99" type="car" depart="99" departLane="random" departSpeed="max">
    <route edges="S2TL TL2N"/>
  </vehicle>
  <person id="ped_0_99" personType="pedestrian" depart="99" departPos="0">
    <walk edges=":DN_w0 N2TL :TL_w0 :TL_c0 :TL_w1 TL2E"/>
  </person>
  <person id="ped_3_99" personType="pedestrian" depart="99" departPos="0">
    <walk edges=":DW_w0 W2TL :TL_w3 :TL_c3 :TL_w0 TL2N"/>
  </person>
  <person id="ped_1_100" personType="pedestrian" depart="100" departPos="0">
    <walk edges=":DE_w0 E2TL :TL_w1 :TL_c1 :TL_w2 TL2S"/>
  </person>
  <person id="ped_2_100" personType="pedestrian" depart="100" departPos="0">
    <walk edges=":DS_w0 S2TL :TL_w2 :TL_c2 :TL_w3 TL2W"/>
  </person>
  <vehicle id="veh_3_101" type="car" depart="101" departLane="random" departSpeed="max">
    <route edges="W2TL TL2S"/>
  </vehicle>
  <vehicle id="veh_1_102" type="car" depart="102" departLane="random" departSpeed="max">
    <route edges="E2TL TL2N"/>
  </vehicle>
  <person id="ped_2_102" personType="pedestrian" depart="102" departPos="0">
    <walk edges=":DS_w0 S2TL :TL_w2 :TL_c2 :TL_w3 TL2W"/>
  </person>
  <vehicle id="veh_2_103" type="car" depart="103" departLane="random" departSpeed="max">
    <route edges="S2TL TL2W"/>
  </vehicle>
  <person id="ped_1_103" personType="pedestrian" depart="103" departPos="0">
    <walk edges=":DE_w0 E2TL :TL_w1 :TL_c1 :TL_w2 TL2S"/>
  </person>
  <vehicle id="veh_2_104" type="car" depart="104" departLane="random" departSpeed="max">
    <route edges="S2TL TL2E"/>
  </vehicle>
  <vehicle id="veh_0_106" type="car" depart="106" departLane="random" departSpeed="max">
    <route edges="N2TL TL2E"/>
  </vehicle>
  <vehicle id="veh_1_108" type="car" depart="108" departLane="random" departSpeed="max">
    <route edges="E2TL TL2S"/>
  </vehicle>
  <person id="ped_1_108" personType="pedestrian" depart="108" departPos="0">
    <walk edges=":DE_w0 E2TL :TL_w1 :TL_c1 :TL_w2 TL2S"/>
  </person>
  <person id="ped_2_108" personType="pedestrian" depart="108" departPos="0">
    <walk edges=":DS_w0 S2TL :TL_w2 :TL_c2 :TL_w3 TL2W"/>
  </person>
  <vehicle id="veh_2_109" type="car" depart="109" departLane="random" departSpeed="max">
    <route edges="S2TL TL2W"/>
  </vehicle>
  <vehicle id="veh_0_110" type="car" depart="110" departLane="random" departSpeed="max">
    <route edges="N2TL TL2S"/>
  </vehicle>
  <vehicle id="veh_1_110" type="car" depart="110" departLane="random" departSpeed="max">
    <route edges="E2TL TL2S"/>
  </vehicle>
  <vehicle id="veh_1_111" type="car" depart="111" departLane="random" departSpeed="max">
    <route edges="E2TL TL2N"/>
  </vehicle>
  <person id="ped_3_111" personType="pedestrian" depart="111" departPos="0">
    <walk edges=":DW_w0 W2TL :TL_w3 :TL_c3 :TL_w0 TL2N"/>
  </person>
  <vehicle id="veh_0_112" type="car" depart="112" departLane="random" departSpeed="max">
    <route edges="N2TL TL2S"/>
  </vehicle>
  <person id="ped_1_112" personType="pedestrian" depart="112" departPos="0">
    <walk edges=":DE_w0 E2TL :TL_w1 :TL_c1 :TL_w2 TL2S"/>
  </person>
  <vehicle id="veh_3_113" type="car" depart="113" departLane="random" departSpeed="max">
    <route edges="W2TL TL2S"/>
  </vehicle>
  <vehicle id="veh_2_114" type="car" depart="114" departLane="random" departSpeed="max">
    <route edges="S2TL TL2E"/>
  </vehicle>
  <person id="ped_0_114" personType="pedestrian" depart="114" departPos="0">
    <walk edges=":DN_w0 N2TL :TL_w0 :TL_c0 :TL_w1 TL2E"/>
  </person>
  <person id="ped_1_115" personType="pedestrian" depart="115" departPos="0">
    <walk edges=":DE_w0 E2TL :TL_w1 :TL_c1 :TL_w2 TL2S"/>
  </person>
  <vehicle id="veh_0_116" type="car" depart="116" departLane="random" departSpeed="max">
    <route edges="N2TL TL2W"/>
  </vehicle>
  <vehicle id="veh_2_117" type="car" depart="117" departLane="random" departSpeed="max">
    <route edges="S2TL TL2W"/>
  </vehicle>
  <person id="ped_1_117" personType="pedestrian" depart="117" departPos="0">
    <walk edges=":DE_w0 E2TL :TL_w1 :TL_c1 :TL_w2 TL2S"/>
  </person>
  <vehicle id="veh_0_118" type="car" depart="118" departLane="random" departSpeed="max">
    <route edges="N2TL TL2S"/>
  </vehicle>
  <vehicle id="veh_3_118" type="car" depart="118" departLane="random" departSpeed="max">
    <route edges="W2TL TL2S"/>
  </vehicle>
  <vehicle id="veh_2_120" type="car" depart="120" departLane="random" departSpeed="max">
    <route edges="S2TL TL2W"/>
  </vehicle>
  <person id="ped_1_120" personType="pedestrian" depart="120" departPos="0">
    <walk edges=":DE_w0 E2TL :TL_w1 :TL_c1 :TL_w2 TL2S"/>
  </person>
  <vehicle id="veh_3_121" type="car" depart="121" departLane="random" departSpeed="max">
    <route edges="W2TL TL2N"/>
  </vehicle>
  <vehicle id="veh_0_122" type="car" depart="122" departLane="random" departSpeed="max">
    <route edges="N2TL TL2W"/>
  </vehicle>
  <vehicle id="veh_1_123" type="car" depart="123" departLane="random" departSpeed="max">
    <route edges="E2TL TL2N"/>
  </vehicle>
  <vehicle id="veh_3_125" type="car" depart="125" departLane="random" departSpeed="max">
    <route edges="W2TL TL2E"/>
  </vehicle>
  <person id="ped_2_125" personType="pedestrian" depart="125" departPos="0">
    <walk edges=":DS_w0 S2TL :TL_w2 :TL_c2 :TL_w3 TL2W"/>
  </person>
  <person id="ped_3_125" personType="pedestrian" depart="125" departPos="0">
    <walk edges=":DW_w0 W2TL :TL_w3 :TL_c3 :TL_w0 TL2N"/>
  </person>
  <person id="ped_1_126" personType="pedestrian" depart="126" departPos="0">
    <walk edges=":DE_w0 E2TL :TL_w1 :TL_c1 :TL_w2 TL2S"/>
  </person>
  <vehicle id="veh_1_128" type="car" depart="128" departLane="random" departSpeed="max">
    <route edges="E2TL TL2W"/>
  </vehicle>
  <vehicle id="veh_2_132" type="car" depart="132" departLane="random" departSpeed="max">
    <route edges="S2TL TL2N"/>
  </vehicle>
  <person id="ped_1_132" personType="pedestrian" depart="132" departPos="0">
    <walk edges=":DE_w0 E2TL :TL_w1 :TL_c1 :TL_w2 TL2S"/>
  </person>
  <person id="ped_3_132" personType="pedestrian" depart="132" departPos="0">
    <walk edges=":DW_w0 W2TL :TL_w3 :TL_c3 :TL_w0 TL2N"/>
  </person>
  <vehicle id="veh_3_133" type="car" depart="133" departLane="random" departSpeed="max">
    <route edges="W2TL TL2E"/>
  </vehicle>
  <person id="ped_3_133" personType="pedestrian" depart="133" departPos="0">
    <walk edges=":DW_w0 W2TL :TL_w3 :TL_c3 :TL_w0 TL2N"/>
  </person>
  <vehicle id="veh_1_134" type="car" depart="134" departLane="random" departSpeed="max">
    <route edges="E2TL TL2S"/>
  </vehicle>
  <person id="ped_1_134" personType="pedestrian" depart="134" departPos="0">
    <walk edges=":DE_w0 E2TL :TL_w1 :TL_c1 :TL_w2 TL2S"/>
  </person>
  <person id="ped_2_134" personType="pedestrian" depart="134" departPos="0">
    <walk edges=":DS_w0 S2TL :TL_w2 :TL_c2 :TL_w3 TL2W"/>
  </person>
  <vehicle id="veh_2_136" type="car" depart="136" departLane="random" departSpeed="max">
    <route edges="S2TL TL2N"/>
  </vehicle>
  <vehicle id="veh_0_137" type="car" depart="137" departLane="random" departSpeed="max">
    <route edges="N2TL TL2E"/>
  </vehicle>
  <person id="ped_2_137" personType="pedestrian" depart="137" departPos="0">
    <walk edges=":DS_w0 S2TL :TL_w2 :TL_c2 :TL_w3 TL2W"/>
  </person>
  <vehicle id="veh_0_138" type="car" depart="138" departLane="random" departSpeed="max">
    <route edges="N2TL TL2E"/>
  </vehicle>
  <vehicle id="veh_3_138" type="car" depart="138" departLane="random" departSpeed="max">
    <route edges="W2TL TL2E"/>
  </vehicle>
  <person id="ped_0_138" personType="pedestrian" depart="138" departPos="0">
    <walk edges=":DN_w0 N2TL :TL_w0 :TL_c0 :TL_w1 TL2E"/>
  </person>
  <vehicle id="veh_1_139" type="car" depart="139" departLane="random" departSpeed="max">
    <route edges="E2TL TL2W"/>
  </vehicle>
  <person id="ped_0_139" personType="pedestrian" depart="139" departPos="0">
    <walk edges=":DN_w0 N2TL :TL_w0 :TL_c0 :TL_w1 TL2E"/>
  </person>
  <person id="ped_1_139" personType="pedestrian" depart="139" departPos="0">
    <walk edges=":DE_w0 E2TL :TL_w1 :TL_c1 :TL_w2 TL2S"/>
  </person>
  <person id="ped_2_139" personType="pedestrian" depart="139" departPos="0">
    <walk edges=":DS_w0 S2TL :TL_w2 :TL_c2 :TL_w3 TL2W"/>
  </person>
  <vehicle id="veh_3_140" type="car" depart="140" departLane="random" departSpeed="max">
    <route edges="W2TL TL2E"/>
  </vehicle>
  <vehicle id="veh_1_141" type="car" depart="141" departLane="random" departSpeed="max">
    <route edges="E2TL TL2N"/>
  </vehicle>
  <vehicle id="veh_2_141" type="car" depart="141" departLane="random" departSpeed="max">
    <route edges="S2TL TL2W"/>
  </vehicle>
  <person id="ped_0_141" personType="pedestrian" depart="141" departPos="0">
    <walk edges=":DN_w0 N2TL :TL_w0 :TL_c0 :TL_w1 TL2E"/>
  </person>
  <vehicle id="veh_0_142" type="car" depart="142" departLane="random" departSpeed="max">
    <route edges="N2TL TL2W"/>
  </vehicle>
  <person id="ped_0_142" personType="pedestrian" depart="142" departPos="0">
    <walk edges=":DN_w0 N2TL :TL_w0 :TL_c0 :TL_w1 TL2E"/>
  </person>
  <person id="ped_1_142" personType="pedestrian" depart="142" departPos="0">
    <walk edges=":DE_w0 E2TL :TL_w1 :TL_c1 :TL_w2 TL2S"/>
  </person>
  <vehicle id="veh_0_143" type="car" depart="143" departLane="random" departSpeed="max">
    <route edges="N2TL TL2E"/>
  </vehicle>
  <vehicle id="veh_3_143" type="car" depart="143" departLane="random" departSpeed="max">
    <route edges="W2TL TL2N"/>
  </vehicle>
  <person id="ped_0_144" personType="pedestrian" depart="144" departPos="0">
    <walk edges=":DN_w0 N2TL :TL_w0 :TL_c0 :TL_w1 TL2E"/>
  </person>
  <vehicle id="veh_0_146" type="car" depart="146" departLane="random" departSpeed="max">
    <route edges="N2TL TL2E"/>
  </vehicle>
  <person id="ped_1_146" personType="pedestrian" depart="146" departPos="0">
    <walk edges=":DE_w0 E2TL :TL_w1 :TL_c1 :TL_w2 TL2S"/>
  </person>
  <person id="ped_2_146" personType="pedestrian" depart="146" departPos="0">
    <walk edges=":DS_w0 S2TL :TL_w2 :TL_c2 :TL_w3 TL2W"/>
  </person>
  <vehicle id="veh_1_148" type="car" depart="148" departLane="random" departSpeed="max">
    <route edges="E2TL TL2N"/>
  </vehicle>
  <person id="ped_1_148" personType="pedestrian" depart="148" departPos="0">
    <walk edges=":DE_w0 E2TL :TL_w1 :TL_c1 :TL_w2 TL2S"/>
  </person>
  <person id="ped_2_148" personType="pedestrian" depart="148" departPos="0">
    <walk edges=":DS_w0 S2TL :TL_w2 :TL_c2 :TL_w3 TL2W"/>
  </person>
  <person id="ped_3_148" personType="pedestrian" depart="148" departPos="0">
    <walk edges=":DW_w0 W2TL :TL_w3 :TL_c3 :TL_w0 TL2N"/>
  </person>
  <person id="ped_1_149" personType="pedestrian" depart="149" departPos="0">
    <walk edges=":DE_w0 E2TL :TL_w1 :TL_c1 :TL_w2 TL2S"/>
  </person>
  <person id="ped_3_149" personType="pedestrian" depart="149" departPos="0">